* Deltares, D-Flow FM Version 1.1.32.20445:20, Jan 16 2012, 19:40:51
* File creation date: 11:58:14, 19-04-2012                                      
Missing Value=      -999.000
     201      41
       0       0       0
 ETA=    1  6.260078665295598330E+05  6.260075097517226823E+05  6.260071529738856480E+05  6.260067961960484972E+05  6.260064394182114629E+05
            6.260060826403744286E+05  6.260057258625372779E+05  6.260053690847001271E+05  6.260050123068632092E+05  6.260059997343494324E+05
            6.260120110563295893E+05  6.260180223783096299E+05  6.260240337002897868E+05  6.260300450222699437E+05  6.260360563442499842E+05
            6.260420676662301412E+05  6.260480789882102981E+05  6.260540903101903386E+05  6.260601016321706120E+05  6.260673632474791957E+05
            6.260762943018821534E+05  6.260852253562852275E+05  6.260941564106881851E+05  6.261030874650911428E+05  6.261120185194939841E+05
            6.261209495738970581E+05  6.261298806283000158E+05  6.261388116827029735E+05  6.261488668759721331E+05  6.261648053187710466E+05
            6.261807437615699600E+05  6.261966822043689899E+05  6.262126206471680198E+05  6.262285590899668168E+05  6.262444975327658467E+05
            6.262604359755647602E+05  6.262763744183637900E+05  6.262925079272601288E+05  6.263098984569056192E+05  6.263272889865509933E+05
            6.263446795161963673E+05  6.263620700458418578E+05  6.263794605754872318E+05  6.263968511051326059E+05  6.264142416347779799E+05
            6.264343772505505476E+05  6.264559106402674224E+05  6.264774440299842972E+05  6.264989774197011720E+05  6.265205108094178140E+05
            6.265420441991346888E+05  6.265635775888515636E+05  6.265851109785683220E+05  6.266066443682851968E+05  6.266284184644576162E+05
            6.266509124031552346E+05  6.266734063418530859E+05  6.266959002805508208E+05  6.267183942192485556E+05  6.267408881579461740E+05
            6.267633820966437925E+05  6.267858760353415273E+05  6.268084161438758019E+05  6.268314036132028559E+05  6.268543910825299099E+05
            6.268773785518569639E+05  6.269003660211840179E+05  6.269233534905110719E+05  6.269463409598381259E+05  6.269693284291651798E+05
            6.269923158984922338E+05  6.270152728913178435E+05  6.270382021146330517E+05  6.270611313379481435E+05  6.270840605612634681E+05
            6.271069897845785599E+05  6.271299190078938846E+05  6.271528482312089764E+05  6.271757774545241846E+05  6.271983095703745494E+05
            6.272207586424292531E+05  6.272432077144841896E+05  6.272656567865388934E+05  6.272881058585937135E+05  6.273105549306485336E+05
            6.273330040027033538E+05  6.273554530747581739E+05  6.273779021468129940E+05  6.274003512188676978E+05  6.274228859437650535E+05
            6.274454355001274962E+05  6.274679850564901717E+05  6.274905346128527308E+05  6.275130841692152899E+05  6.275356337255779654E+05
            6.275581832819405245E+05  6.275807328383030836E+05  6.276032823946656426E+05  6.276258786298622144E+05  6.276486188049012562E+05
            6.276713589799401816E+05  6.276940991549792234E+05  6.277168393300182652E+05  6.277395795050573070E+05  6.277623196800963487E+05
            6.277850598551352741E+05  6.278078000301743159E+05  6.278304947358338395E+05  6.278529788084747270E+05  6.278754628811157309E+05
            6.278979469537567347E+05  6.279204310263976222E+05  6.279429150990386261E+05  6.279653991716795135E+05  6.279875536606906680E+05
            6.280094805577492807E+05  6.280314074548077770E+05  6.280533343518662732E+05  6.280752612489247695E+05  6.280971881459833821E+05
            6.281191150430418784E+05  6.281410419401003746E+05  6.281629688371588709E+05  6.281854267549710348E+05  6.282080403599747224E+05
            6.282306539649782935E+05  6.282532675699818647E+05  6.282758811749855522E+05  6.282984947799891233E+05  6.283211083849926945E+05
            6.283437219899962656E+05  6.283663355949998368E+05  6.283889492000035243E+05  6.284115628050070954E+05  6.284341764100106666E+05
            6.284565394716629526E+05  6.284788180273850448E+05  6.285010965831072535E+05  6.285233751388293458E+05  6.285432604367909953E+05
            6.285621328747945372E+05  6.285810053127981955E+05  6.285998777508016210E+05  6.286187501888052793E+05  6.286376226268088212E+05
            6.286564950648123631E+05  6.286753675028160214E+05  6.286954331704563228E+05  6.287157814443779644E+05  6.287361297182993731E+05
            6.287564779922210146E+05  6.287768262661425397E+05  6.287971745400641812E+05  6.288175228139858227E+05  6.288378710879073478E+05
            6.288594742910208879E+05  6.288813561296944972E+05  6.289032379683681065E+05  6.289251198070414830E+05  6.289470016457150923E+05
            6.289688834843885852E+05  6.289907653230620781E+05  6.290126471617355710E+05  6.290345290004090639E+05  6.290564108390825568E+05
            6.290782926777561661E+05  6.291001745164296590E+05  6.291220563551031519E+05  6.291439381937766448E+05  6.291658200324501377E+05
            6.291877018711236306E+05  6.292095837097971234E+05  6.292320131773828762E+05  6.292549494947650237E+05  6.292778858121472877E+05
            6.293008221295294352E+05  6.293237584469115827E+05  6.293466947642937303E+05  6.293696310816759942E+05  6.293920103192644892E+05
            6.294140048674172722E+05  6.294359994155701715E+05  6.294579939637229545E+05  6.294799519312260672E+05  6.295016359053672059E+05
            6.295233198795084609E+05  6.295450038536495995E+05  6.295666878277908545E+05  6.295883718019318767E+05  6.296100557760731317E+05
            6.296317397502142703E+05  6.296534237243554089E+05  6.296751076984965475E+05  6.296967916726378025E+05  6.297190455436337506E+05
            6.297413636482787551E+05  6.297636817529236432E+05  6.297859998575686477E+05  6.298083179622136522E+05  6.298308830990780843E+05
            6.298538117205459857E+05
 ETA=    2  6.260142687785425223E+05  6.260141249173096148E+05  6.260139717363434611E+05  6.260137699544929201E+05  6.260135304646668956E+05
            6.260132770863326732E+05  6.260130299653225811E+05  6.260128336755430792E+05  6.260128691433698405E+05  6.260143539605941623E+05
            6.260196526036432479E+05  6.260254516713870689E+05  6.260313626453630859E+05  6.260372976858009351E+05  6.260432334940177388E+05
            6.260491603938385379E+05  6.260550772780659609E+05  6.260610159345315769E+05  6.260671145739603089E+05  6.260743272527958034E+05
            6.260829781154098455E+05  6.260919045098094502E+05  6.261009064673531102E+05  6.261099302425937494E+05  6.261189604002692504E+05
            6.261280012102221372E+05  6.261370916593276197E+05  6.261464104747073725E+05  6.261570659804799361E+05  6.261722163743099663E+05
            6.261879244580029044E+05  6.262037530398957897E+05  6.262196074643905740E+05  6.262354668041706318E+05  6.262513291303549195E+05
            6.262672037853518268E+05  6.262831334611977218E+05  6.262993511123819044E+05  6.263165761650179047E+05  6.263339903298472054E+05
            6.263514449868232477E+05  6.263689120879539987E+05  6.263863939248403767E+05  6.264039379534379113E+05  6.264217777374931611E+05
            6.264417035574966576E+05  6.264630125430530170E+05  6.264844861270507099E+05  6.265059971692588879E+05  6.265275158156163525E+05
            6.265490360275281128E+05  6.265705578829972073E+05  6.265920873282797402E+05  6.266136539814646821E+05  6.266354489488303661E+05
            6.266578195820437977E+05  6.266802543256009230E+05  6.267027020416164305E+05  6.267251524122464471E+05  6.267476038218711037E+05
            6.267700585795870284E+05  6.267925288491984829E+05  6.268150640297404025E+05  6.268379550581086660E+05  6.268608845712210750E+05
            6.268838219186968636E+05  6.269067608085373649E+05  6.269296999490453163E+05  6.269526390926407184E+05  6.269755779969644500E+05
            6.269985155598134734E+05  6.270214185227891430E+05  6.270443019776975270E+05  6.270671730247415835E+05  6.270900435574791627E+05
            6.271129102343042614E+05  6.271357747157750418E+05  6.271586326229353435E+05  6.271814576351706637E+05  6.272039622690039687E+05
            6.272263781838162104E+05  6.272487752793020336E+05  6.272711637021042407E+05  6.272935479583309498E+05  6.273159301207161043E+05
            6.273383118046359159E+05  6.273606939622972859E+05  6.273830790075622499E+05  6.274054760505403392E+05  6.274279474367055809E+05
            6.274504458140335046E+05  6.274729489500480704E+05  6.274954531599583570E+05  6.275179575659893453E+05  6.275404619913354982E+05
            6.275629663367422763E+05  6.275854704454663442E+05  6.276079761125113582E+05  6.276305179394399747E+05  6.276531708940763492E+05
            6.276758323790954892E+05  6.276984951190128922E+05  6.277211580986282788E+05  6.277438213258089963E+05  6.277664855034197681E+05
            6.277891521031325683E+05  6.278118186064645415E+05  6.278344343410833972E+05  6.278568857766956789E+05  6.278793190909181722E+05
            6.279017490380725358E+05  6.279241776588244829E+05  6.279466013910641195E+05  6.279689972981967730E+05  6.279911118704971159E+05
            6.280130292012487771E+05  6.280349218932166696E+05  6.280568102701248135E+05  6.280786979749207385E+05  6.281005857657385059E+05
            6.281224748521067668E+05  6.281443719645425444E+05  6.281663155008292524E+05  6.281886786982578924E+05  6.282112142834707629E+05
            6.282337677619318711E+05  6.282563242450740654E+05  6.282788810631035594E+05  6.283014372343349969E+05  6.283239904623781331E+05
            6.283465354050507303E+05  6.283690723119532922E+05  6.283916039410851663E+05  6.284141309580956586E+05  6.284366377706319327E+05
            6.284589373432602733E+05  6.284811486985002412E+05  6.285033196559974458E+05  6.285253073357236572E+05  6.285452508209327934E+05
            6.285642700710181380E+05  6.285831582924113609E+05  6.286020247446541907E+05  6.286208882406814955E+05  6.286397536725818645E+05
            6.286586345914765261E+05  6.286776115916341078E+05  6.286975526807063725E+05  6.287178192860695999E+05  6.287381258893196937E+05
            6.287584401611414505E+05  6.287787560056383954E+05  6.287990743628517957E+05  6.288194088570658350E+05  6.288398454421573551E+05
            6.288612988794326084E+05  6.288830953841796145E+05  6.289049332665625261E+05  6.289267782851767261E+05  6.289486244280975079E+05
            6.289704711768779671E+05  6.289923199084622320E+05  6.290141721177770523E+05  6.290360304902412463E+05  6.290578904454470612E+05
            6.290797507748327916E+05  6.291016111688512610E+05  6.291234715848228661E+05  6.291453321124785580E+05  6.291671936655871104E+05
            6.291890630904762074E+05  6.292109871794451028E+05  6.292333483063743915E+05  6.292561970421615988E+05  6.292790784902168671E+05
            6.293019646370366681E+05  6.293248507457581582E+05  6.293477318140094867E+05  6.293705774215131532E+05  6.293929102239662316E+05
            6.294149207051318372E+05  6.294368872358010849E+05  6.294588422070589149E+05  6.294807469903032761E+05  6.295024272646702593E+05
            6.295240877642747946E+05  6.295457454867548076E+05  6.295674031444014981E+05  6.295890620963558322E+05  6.296107239115478005E+05
            6.296323886488287244E+05  6.296540548306732671E+05  6.296757267143295612E+05  6.296974387642844813E+05  6.297196183778776322E+05
            6.297418920835145982E+05  6.297641762052148115E+05  6.297864664733626414E+05  6.298087820524959825E+05  6.298313077822603518E+05
            6.298541693694944261E+05
 ETA=    3  6.260206710275253281E+05  6.260207501321043819E+05  6.260208013977285009E+05  6.260207542550865328E+05  6.260206318747174228E+05
            6.260204815459193196E+05  6.260203427273469279E+05  6.260202982509640278E+05  6.260206393526329193E+05  6.260224454813799821E+05
            6.260272789274725365E+05  6.260328868832834996E+05  6.260387000383652048E+05  6.260445588163991924E+05  6.260504187850519083E+05
            6.260562608737900155E+05  6.260620821514764102E+05  6.260679418158743065E+05  6.260740616350430064E+05  6.260812098413689528E+05
            6.260896628785884241E+05  6.260985890826454852E+05  6.261076625724978512E+05  6.261167791179999476E+05  6.261259082572817570E+05
            6.261350578503458528E+05  6.261443001926871948E+05  6.261539283301469404E+05  6.261649751247001113E+05  6.261796083078695228E+05
            6.261951083219440188E+05  6.262108297745734453E+05  6.262266003776846919E+05  6.262423804801625665E+05  6.262581663743475219E+05
            6.262739758234152105E+05  6.262898832692196593E+05  6.263061409131826367E+05  6.263232569366605021E+05  6.263406969490130432E+05
            6.263582161708192434E+05  6.263757598352819914E+05  6.263933317143032327E+05  6.264110182750679087E+05  6.264291695473996224E+05
            6.264489702714234591E+05  6.264701153280424187E+05  6.264915343681360828E+05  6.265130236822462175E+05  6.265345276956920279E+05
            6.265560347619408276E+05  6.265775449747226667E+05  6.265990692912600935E+05  6.266206547277839854E+05  6.266424541891417466E+05
            6.266647312767797848E+05  6.266871091692672344E+05  6.267095109503931599E+05  6.267319177836950403E+05  6.267543266230644658E+05
            6.267767418002210325E+05  6.267991838229977293E+05  6.268217002243819879E+05  6.268445122449930059E+05  6.268673851290094899E+05
            6.268902725112687331E+05  6.269131628373417770E+05  6.269360536489340011E+05  6.269589444664602634E+05  6.269818348306139233E+05
            6.270047227617074968E+05  6.270275737234127009E+05  6.270504096432854421E+05  6.270732223300221376E+05  6.270960337459564907E+05
            6.271188378284648061E+05  6.271416376556797186E+05  6.271644252973014954E+05  6.271871607416167390E+05  6.272096280105361948E+05
            6.272320051572517259E+05  6.272543498382288963E+05  6.272766775228425395E+05  6.272989968678314472E+05  6.273213120672277873E+05
            6.273436263084937818E+05  6.273659414753329474E+05  6.273882622180434410E+05  6.274106039654111955E+05  6.274330147552333074E+05
            6.274554625845073024E+05  6.274779193355651805E+05  6.275003781876390567E+05  6.275228374267098261E+05  6.275452967014958849E+05
            6.275677557984108571E+05  6.275902142714214278E+05  6.276126738702435978E+05  6.276351579945721896E+05  6.276577288564098999E+05
            6.276803119470929960E+05  6.277028972200781573E+05  6.277254829360474832E+05  6.277480691459015943E+05  6.277706572756126989E+05
            6.277932503897082061E+05  6.278158450964054791E+05  6.278383882421401795E+05  6.278607990368605824E+05  6.278831810129464138E+05
            6.279055567443380132E+05  6.279279299467256060E+05  6.279502940751852002E+05  6.279726131733509246E+05  6.279946858336874284E+05
            6.280165839571120450E+05  6.280384417578066932E+05  6.280602915215292014E+05  6.280821400005260948E+05  6.281039886460106354E+05
            6.281258397649122635E+05  6.281477057863468071E+05  6.281696462773958920E+05  6.281919297911359463E+05  6.282143929169584299E+05
            6.282368866248423001E+05  6.282593859762185020E+05  6.282818859601663426E+05  6.283043846469091950E+05  6.283268774944129400E+05
            6.283493536999695934E+05  6.283718137746220455E+05  6.283942633842240321E+05  6.284167042320370674E+05  6.284391123057054356E+05
            6.284613434614646249E+05  6.284834843615739373E+05  6.285055519159571268E+05  6.285273206294067204E+05  6.285472943498471286E+05
            6.285664142982113408E+05  6.285853153214482591E+05  6.286041754913199693E+05  6.286230299849128351E+05  6.286418881692510331E+05
            6.286607751879434800E+05  6.286798176141574513E+05  6.286996646139123477E+05  6.287198600452303654E+05  6.287401256303384434E+05
            6.287604059196201852E+05  6.287806892810082063E+05  6.288009774619933451E+05  6.288212957478187745E+05  6.288417799910886679E+05
            6.288631168029808905E+05  6.288848374223720748E+05  6.289066319201460574E+05  6.289284401392628206E+05  6.289502505596103147E+05
            6.289720621920598205E+05  6.289938778346996987E+05  6.290157003908184124E+05  6.290375352393304929E+05  6.290593732969526900E+05
            6.290812121067215921E+05  6.291030510460345540E+05  6.291248900283409748E+05  6.291467292260503164E+05  6.291685703786081867E+05
            6.291904261822192930E+05  6.292123711920559872E+05  6.292346747995044570E+05  6.292574470494539710E+05  6.292802742245472036E+05
            6.293031102092902875E+05  6.293259461211677408E+05  6.293487725915136980E+05  6.293715400015751366E+05  6.293938291883673519E+05
            6.294158402327432996E+05  6.294377779549844563E+05  6.294596946027697995E+05  6.294815528298480203E+05  6.295032216793583939E+05
            6.295248582698411774E+05  6.295464896807559999E+05  6.295681209944613511E+05  6.295897549075103598E+05  6.296113945423453115E+05
            6.296330400157240219E+05  6.296546883265216602E+05  6.296763473123970907E+05  6.296980719718219480E+05  6.297201912639875663E+05
            6.297424227775203763E+05  6.297646729818765307E+05  6.297869349335252773E+05  6.298092391216775868E+05  6.298317263613335090E+05
            6.298545270184429828E+05
 ETA=    4  6.260270732765080174E+05  6.260273823427623138E+05  6.260276387822654797E+05  6.260277457487744978E+05  6.260277399214161560E+05
            6.260276917791819433E+05  6.260276587270412128E+05  6.260277535982921254E+05  6.260283311072280630E+05  6.260303477946064668E+05
            6.260348749178531580E+05  6.260403197990410263E+05  6.260460391210936941E+05  6.260518218108228175E+05  6.260576054261487443E+05
            6.260633619839159073E+05  6.260690858210282167E+05  6.260748579309504712E+05  6.260809525444410974E+05  6.260880263823494315E+05
            6.260963369245827198E+05  6.261052704384527169E+05  6.261144163491782965E+05  6.261236255861413665E+05  6.261328532842295244E+05
            6.261421098021230428E+05  6.261514931352124549E+05  6.261613652640511282E+05  6.261726706507942872E+05  6.261869618223670404E+05
            6.262022837093950948E+05  6.262179024243629538E+05  6.262335897454260848E+05  6.262492904788720189E+05  6.262649995038409252E+05
            6.262807417723548133E+05  6.262966153728895588E+05  6.263128849304940086E+05  6.263299285040223040E+05  6.263473988037527306E+05
            6.263649832335265819E+05  6.263826032964886399E+05  6.264002631138538709E+05  6.264180772349671461E+05  6.264364489716707030E+05
            6.264561789177212631E+05  6.264772064374573529E+05  6.264985784256171901E+05  6.265200471335415496E+05  6.265415367563215550E+05
            6.265630307603109395E+05  6.265845291874391260E+05  6.266060467542579863E+05  6.266276401365040801E+05  6.266494335872486699E+05
            6.266716371283772169E+05  6.266939614546183730E+05  6.267163178414470749E+05  6.267386812808719696E+05  6.267610475623914972E+05
            6.267834226607766468E+05  6.268058326389766298E+05  6.268283213471292984E+05  6.268510659537982428E+05  6.268738841126704356E+05
            6.268967218699369114E+05  6.269195637574645225E+05  6.269424063324675662E+05  6.269652489180125995E+05  6.269880908680675784E+05
            6.270109295544844354E+05  6.270337299456745386E+05  6.270565172667128500E+05  6.270792714470955543E+05  6.271020235141541343E+05
            6.271247650492868852E+05  6.271475004751280649E+05  6.271702193931931397E+05  6.271928752021589316E+05  6.272152986858537188E+05
            6.272376326974581461E+05  6.272599244022431085E+05  6.272821913066192064E+05  6.273044457383882254E+05  6.273266940037917811E+05
            6.273489408279800555E+05  6.273711889957586536E+05  6.273934451585233910E+05  6.274157295023866463E+05  6.274380815733354539E+05
            6.274604794948303606E+05  6.274828899959524861E+05  6.275053035574969836E+05  6.275277176876380108E+05  6.275501318644770654E+05
            6.275725457361774752E+05  6.275949583856122335E+05  6.276173702784525231E+05  6.276397945745320758E+05  6.276622869131426560E+05
            6.276847921334948624E+05  6.277073000170045998E+05  6.277298084901684197E+05  6.277523177001167787E+05  6.277748298291752581E+05
            6.277973497020037612E+05  6.278198743015166838E+05  6.278423491854859749E+05  6.278647139694893267E+05  6.278870438913216349E+05
            6.279093653618182288E+05  6.279316832962040789E+05  6.279539889404823771E+05  6.279762393364800373E+05  6.279982687966787489E+05
            6.280201407638894161E+05  6.280419627740147989E+05  6.280637738448963501E+05  6.280855831144533586E+05  6.281073926192570943E+05
            6.281292055918661645E+05  6.281510387629267061E+05  6.281729627635097131E+05  6.281951768075737637E+05  6.282175721839191392E+05
            6.282400067346072756E+05  6.282624490428999998E+05  6.282848922186868731E+05  6.283073334396514110E+05  6.283297659525208874E+05
            6.283521734177182661E+05  6.283745566266600508E+05  6.283969242824779358E+05  6.284192796665991191E+05  6.284415946711242432E+05
            6.284637541481507942E+05  6.284858224720134167E+05  6.285077926345679443E+05  6.285293932793991407E+05  6.285493782109374879E+05
            6.285685642624313477E+05  6.285874738427695120E+05  6.286063272494610865E+05  6.286251726393289864E+05  6.286440231996701332E+05
            6.286629129679665202E+05  6.286819936328814365E+05  6.287017674745479599E+05  6.287219006238366710E+05  6.287421262043638853E+05
            6.287623726036597509E+05  6.287826234426619485E+05  6.288028810829326976E+05  6.288231797693157569E+05  6.288436833864466753E+05
            6.288649264589471277E+05  6.288865794378950959E+05  6.289083314739727648E+05  6.289301030020643957E+05  6.289518777259030612E+05
            6.289736542664486915E+05  6.289954368773507886E+05  6.290172298019485315E+05  6.290390411211996106E+05  6.290608573083764641E+05
            6.290826746309029404E+05  6.291044921483063372E+05  6.291263097283366369E+05  6.291481276112884516E+05  6.291699482263097307E+05
            6.291917887281416915E+05  6.292137394594978541E+05  6.292359931230500806E+05  6.292586974991040770E+05  6.292814713558156509E+05
            6.293042572909122100E+05  6.293270431234759744E+05  6.293498160195520613E+05  6.293725146050243638E+05  6.293947621872528689E+05
            6.294167626170607982E+05  6.294386704619366210E+05  6.294605499292185996E+05  6.294823662774232216E+05  6.295040182740350720E+05
            6.295256303842249326E+05  6.295472354423485231E+05  6.295688404220223892E+05  6.295904493179385317E+05  6.296120667873013299E+05
            6.296336930014382815E+05  6.296553233586176066E+05  6.296769683299588505E+05  6.296986946615674533E+05  6.297207635094311554E+05
            6.297429549970703665E+05  6.297651714451339794E+05  6.297874044510105159E+05  6.298096907340674661E+05  6.298321401167132426E+05
            6.298548846673914231E+05
 ETA=    5  6.260334755254908232E+05  6.260340192203916376E+05  6.260344812323114602E+05  6.260347416462166002E+05  6.260348515666633612E+05
            6.260349044304913841E+05  6.260349739976370474E+05  6.260351950567272725E+05  6.260359562646771083E+05  6.260381124150062678E+05
            6.260424365873188945E+05  6.260477446550873574E+05  6.260533750003440073E+05  6.260590817458877573E+05  6.260647884011215065E+05
            6.260704585331428098E+05  6.260760827360851690E+05  6.260817588280738564E+05  6.260877957858067239E+05  6.260947887584659038E+05
            6.261029941176231951E+05  6.261119425109918229E+05  6.261211619023216190E+05  6.261304636368507054E+05  6.261397893030118430E+05
            6.261491504513899563E+05  6.261586631718624849E+05  6.261687283019030001E+05  6.261802065472782124E+05  6.261942707227065694E+05
            6.262094427951754769E+05  6.262249642198665533E+05  6.262405688983043656E+05  6.262561901757748565E+05  6.262718218627427705E+05
            6.262874948611989385E+05  6.263033254330888158E+05  6.263195887363391230E+05  6.263365838844104437E+05  6.263540891026100144E+05
            6.263717395417450462E+05  6.263894357938143658E+05  6.264071809115688084E+05  6.264251083185719326E+05  6.264436395642438438E+05
            6.264633341681974707E+05  6.264842788414541865E+05  6.265056114413868636E+05  6.265270609734273748E+05  6.265485365241537802E+05
            6.265700176031282172E+05  6.265915040996973403E+05  6.266130133258957649E+05  6.266346067354889819E+05  6.266563873738457914E+05
            6.266785309963191394E+05  6.267008049866555957E+05  6.267231166954113869E+05  6.267454369585308013E+05  6.267677607479037251E+05
            6.267900953026902862E+05  6.268124703036127612E+05  6.268349255374346394E+05  6.268576105920436094E+05  6.268803759177555330E+05
            6.269031645224498352E+05  6.269259581710513448E+05  6.269487526739429450E+05  6.269715471904646838E+05  6.269943409327057889E+05
            6.270171307837056229E+05  6.270398816605532775E+05  6.270626197784346296E+05  6.270853153813637327E+05  6.271080080197277712E+05
            6.271306871277614264E+05  6.271533585202620598E+05  6.271760102832078701E+05  6.271985932761549484E+05  6.272209687794746133E+05
            6.272432564171762206E+05  6.272654946005089441E+05  6.272877007298915414E+05  6.273098903195069870E+05  6.273320717438387219E+05
            6.273542512394995429E+05  6.273764324535535416E+05  6.273986238355608657E+05  6.274208494301143801E+05  6.274431441098753130E+05
            6.274654927120219218E+05  6.274878571595185203E+05  6.275102255540719489E+05  6.275325946874980582E+05  6.275549638718555216E+05
            6.275773325873970753E+05  6.275996992682096316E+05  6.276220622717915103E+05  6.276444253780958243E+05  6.276668417260729475E+05
            6.276892696505930508E+05  6.277117002995981602E+05  6.277341316129994811E+05  6.277565639026352437E+05  6.277790001448432449E+05
            6.278014470999931218E+05  6.278239030052397866E+05  6.278463126161904074E+05  6.278686277734566247E+05  6.278909049943579594E+05
            6.279131721879458055E+05  6.279354350836224621E+05  6.279576834073025966E+05  6.279798708975098561E+05  6.280018563352379715E+05
            6.280236971866629319E+05  6.280454825385487638E+05  6.280672548499354161E+05  6.280890249618620146E+05  6.281107953652596334E+05
            6.281325699970367132E+05  6.281543686357353581E+05  6.281762668922782177E+05  6.281984184963856824E+05  6.282207499040474650E+05
            6.282431259948874358E+05  6.282655114080229541E+05  6.282878978466143599E+05  6.283102816627933644E+05  6.283326539145201677E+05
            6.283549926810603356E+05  6.283772990562038030E+05  6.283995848957874114E+05  6.284218555628285976E+05  6.284440815207755659E+05
            6.284661671504351543E+05  6.284881616743281484E+05  6.285100404662129004E+05  6.285315091021871194E+05  6.285514921695408411E+05
            6.285707187808839371E+05  6.285896325756155420E+05  6.286084786384360632E+05  6.286273148195135873E+05  6.286461572937329765E+05
            6.286650465189298848E+05  6.286841464057703270E+05  6.287038616062651854E+05  6.287239395978825632E+05  6.287441262877482222E+05
            6.287643389336105902E+05  6.287845572298088809E+05  6.288047838926060358E+05  6.288250596541486448E+05  6.288455628275627969E+05
            6.288667281187428162E+05  6.288883201781646349E+05  6.289100307821301976E+05  6.289317657735315152E+05  6.289535048544417368E+05
            6.289752463537728181E+05  6.289969960071038222E+05  6.290187593438724289E+05  6.290405471560547594E+05  6.290623415185852209E+05
            6.290841374052085448E+05  6.291059335523629561E+05  6.291277297794729238E+05  6.291495263787740842E+05  6.291713262915818486E+05
            6.291931498310650932E+05  6.292150954088033177E+05  6.292373044743352802E+05  6.292599475374723552E+05  6.292826690881724935E+05
            6.293054051366749918E+05  6.293281410588980652E+05  6.293508614524345612E+05  6.293734981592230033E+05  6.293957055776217021E+05
            6.294176872863023309E+05  6.294395642015341436E+05  6.294614074177946895E+05  6.294831852076491341E+05  6.295048165098517202E+05
            6.295264035845324397E+05  6.295479822473116219E+05  6.295695609158416046E+05  6.295911448286535451E+05  6.296127401576954871E+05
            6.296343471263019601E+05  6.296559594280854799E+05  6.296775892801013542E+05  6.296993094967588549E+05  6.297213349389225477E+05
            6.297434882777592866E+05  6.297656711553642526E+05  6.297878745906652184E+05  6.298101381848911988E+05  6.298325501526077278E+05
            6.298552423163398635E+05
 ETA=    6  6.260398777744735125E+05  6.260406589277340099E+05  6.260413264979281230E+05  6.260417395274722949E+05  6.260419641930824146E+05
            6.260421166463129921E+05  6.260422854941264959E+05  6.260426207496384159E+05  6.260435259953293717E+05  6.260457773971909191E+05
            6.260499636888398090E+05  6.260551578462475445E+05  6.260607034418756375E+05  6.260663343978963094E+05  6.260719633591242600E+05
            6.260775460192228202E+05  6.260830683902924648E+05  6.260886408316713059E+05  6.260945977431291249E+05  6.261015056878918549E+05
            6.261096303135497728E+05  6.261186003033851739E+05  6.261278940003352473E+05  6.261372879417184740E+05  6.261467108347681351E+05
            6.261561742010033922E+05  6.261658057453851216E+05  6.261760248137211893E+05  6.261876224563971628E+05  6.262015325907178922E+05
            6.262165799244756345E+05  6.262320089691552566E+05  6.262475317628344055E+05  6.262630734750228003E+05  6.262786273445901461E+05
            6.262942291911012726E+05  6.263100095680862432E+05  6.263262553514218889E+05  6.263432172739276430E+05  6.263607616795958020E+05
            6.263784788352324395E+05  6.263962509879419813E+05  6.264140789861714002E+05  6.264321068580235587E+05  6.264507581994461361E+05
            6.264704397463365458E+05  6.264913268612052780E+05  6.265126270651008235E+05  6.265340588258909993E+05  6.265555206744001480E+05
            6.265769889863310382E+05  6.265984634487211006E+05  6.266199629375881050E+05  6.266415507345846854E+05  6.266633143530277302E+05
            6.266854070736391004E+05  6.267076336897057481E+05  6.267299014325047610E+05  6.267521787915730383E+05  6.267744601989074145E+05
            6.267967538420754718E+05  6.268190916849724017E+05  6.268415098756134976E+05  6.268641405465478310E+05  6.268868548086255323E+05
            6.269095947532597929E+05  6.269323404190564761E+05  6.269550870627429103E+05  6.269778337249145843E+05  6.270005795042591635E+05
            6.270233209499319782E+05  6.270460230949835386E+05  6.270687117216184270E+05  6.270913487543492811E+05  6.271139819937589345E+05
            6.271365988586695166E+05  6.271592066207132302E+05  6.271817926991209388E+05  6.272043074627747992E+05  6.272266323851139750E+05
            6.272488712894498603E+05  6.272710555134424940E+05  6.272932009202738991E+05  6.273153257938113529E+05  6.273374405198341701E+05
            6.273595528231416829E+05  6.273816671822717180E+05  6.274037936613905476E+05  6.274259597198012052E+05  6.274481979424394667E+05
            6.274704977568526519E+05  6.274928163819728652E+05  6.275151397764446447E+05  6.275374640687556239E+05  6.275597884087973507E+05
            6.275821120810573921E+05  6.276044327104657423E+05  6.276267460135285510E+05  6.276490471309321001E+05  6.276713892578998348E+05
            6.276937404718210455E+05  6.277160940891335486E+05  6.277384483811394311E+05  6.277608038842363749E+05  6.277831644086743472E+05
            6.278055388018651865E+05  6.278279271899061278E+05  6.278502735459816176E+05  6.278725367597513832E+05  6.278947607446165057E+05
            6.279169737020531902E+05  6.279391818220977439E+05  6.279613739356052829E+05  6.279835025853879051E+05  6.280054435286411317E+05
            6.280272498298117425E+05  6.280489977763007628E+05  6.280707313038029242E+05  6.280924623439726420E+05  6.281141937161874957E+05
            6.281359298690190772E+05  6.281576924771914491E+05  6.281795588863182347E+05  6.282016527324789204E+05  6.282239231558891479E+05
            6.282462414814408403E+05  6.282685701945676701E+05  6.282909000151883811E+05  6.283132265335540287E+05  6.283355386350882472E+05
            6.283578087944076397E+05  6.283800384338645963E+05  6.284022426446303725E+05  6.284244293370618252E+05  6.284465690404792549E+05
            6.284685794947604882E+05  6.284904995393626159E+05  6.285122925233794376E+05  6.285336539736049017E+05  6.285536265508153010E+05
            6.285728752624313347E+05  6.285917892962810583E+05  6.286106274524613982E+05  6.286294543014937080E+05  6.286482882585469633E+05
            6.286671739038149826E+05  6.286862802054145141E+05  6.287059464364836458E+05  6.287259748492449289E+05  6.287461236956237117E+05
            6.287663027435549302E+05  6.287864884885525098E+05  6.288066837890220340E+05  6.288269335733837215E+05  6.288474229699436110E+05
            6.288685211868121987E+05  6.288900576849086210E+05  6.289117278475337662E+05  6.289334264932842925E+05  6.289551300219394034E+05
            6.289768365670320345E+05  6.289985533678710926E+05  6.290202871946815867E+05  6.290420515597894555E+05  6.290638241760309320E+05
            6.290855987106717657E+05  6.291073735719500110E+05  6.291291485284717055E+05  6.291509239045778522E+05  6.291727029977819184E+05
            6.291945080653738696E+05  6.292164410368334502E+05  6.292386091604616959E+05  6.292611957961276639E+05  6.292838660397322383E+05
            6.293065524137971224E+05  6.293292386429384351E+05  6.293519075820320286E+05  6.293744874559304444E+05  6.293966557368669892E+05
            6.294186130640745396E+05  6.294404581140812952E+05  6.294622658633309184E+05  6.294840073841724079E+05  6.295056154122835724E+05
            6.295271769691819791E+05  6.295487292323656147E+05  6.295702816453924170E+05  6.295918406423762208E+05  6.296134138882642146E+05
            6.296350016549110878E+05  6.296565958400365198E+05  6.296782095738351345E+05  6.296999183901640354E+05  6.297219052700635511E+05
            6.297440220723079983E+05  6.297661715962744784E+05  6.297883449224785436E+05  6.298105824771241751E+05  6.298329573604549514E+05
            6.298555999652884202E+05
 ETA=    7  6.260462800234563183E+05  6.260473002077061683E+05  6.260481730122091249E+05  6.260487378109254641E+05  6.260490761999636889E+05
            6.260493268390570302E+05  6.260495918536190875E+05  6.260500311854025349E+05  6.260510523438774981E+05  6.260533698056302965E+05
            6.260574609321462922E+05  6.260625580608616583E+05  6.260680228442848893E+05  6.260735779992151074E+05  6.260791285551580368E+05
            6.260846227382508805E+05  6.260900412207096815E+05  6.260955039537871489E+05  6.261013654432384064E+05  6.261081854969088454E+05
            6.261162456843331456E+05  6.261252423170944676E+05  6.261346110461184289E+05  6.261440968408191111E+05  6.261536162392188562E+05
            6.261631796108413255E+05  6.261729210626890417E+05  6.261832661625242326E+05  6.261949479499387089E+05  6.262087525031176629E+05
            6.262236937898496399E+05  6.262390351309751859E+05  6.262544766507187160E+05  6.262699387359621469E+05  6.262854143793544499E+05
            6.263009434848623350E+05  6.263166685999084730E+05  6.263328894489012891E+05  6.263498282040401828E+05  6.263674150493378984E+05
            6.263851995969131822E+05  6.264030474174391711E+05  6.264209559831570368E+05  6.264390747166698566E+05  6.264578195622495841E+05
            6.264775028631360037E+05  6.264983503915222827E+05  6.265196238560070051E+05  6.265410391876536887E+05  6.265624876901134849E+05
            6.265839434175239876E+05  6.266054057782003656E+05  6.266268944624877768E+05  6.266484727408576291E+05  6.266702166205303511E+05
            6.266922646425786661E+05  6.267144461984757800E+05  6.267366706848095637E+05  6.267589054186529247E+05  6.267811445843101246E+05
            6.268033970635602018E+05  6.268256962417266332E+05  6.268480750924827298E+05  6.268706549608514179E+05  6.268933195584007772E+05
            6.269160113449136261E+05  6.269387092946826015E+05  6.269614083128508646E+05  6.269841073517166078E+05  6.270068054348755395E+05
            6.270294988528962713E+05  6.270521528782871319E+05  6.270747919057235122E+05  6.270973704356965609E+05  6.271199443793775281E+05
            6.271424992075178307E+05  6.271650437515430385E+05  6.271875653368921485E+05  6.272100150497419527E+05  6.272322877149060369E+05
            6.272544762814298738E+05  6.272766062175998231E+05  6.272986909860332962E+05  6.273207512984564528E+05  6.273427994912127033E+05
            6.273648447610749863E+05  6.273868923870954895E+05  6.274089539302801713E+05  6.274310599890784360E+05  6.274532424470348051E+05
            6.274754939152441220E+05  6.274977669517087052E+05  6.275200455257580616E+05  6.275423251464533387E+05  6.275646048047256190E+05
            6.275868835622769548E+05  6.276091581102132332E+05  6.276314211791822454E+05  6.276536598293954739E+05  6.276759290197140072E+05
            6.276982040237542242E+05  6.277204808284710161E+05  6.277427582541806623E+05  6.277650371229213197E+05  6.277873221135491040E+05
            6.278096242877885234E+05  6.278319460600016173E+05  6.278542305861265631E+05  6.278764403237649240E+05  6.278986107047625119E+05
            6.279207694798978046E+05  6.279429230938591063E+05  6.279650599082435947E+05  6.279871325911704917E+05  6.280090287645541830E+05
            6.280307981518565211E+05  6.280525081285113702E+05  6.280742028646875406E+05  6.280958949299230007E+05  6.281175873556955485E+05
            6.281392849078326253E+05  6.281610103679914027E+05  6.281828407571867574E+05  6.282048800965148257E+05  6.282270917523659300E+05
            6.282493529234430753E+05  6.282716251332237152E+05  6.282938984618620016E+05  6.283161677956817439E+05  6.283384198569816072E+05
            6.283606215097490931E+05  6.283827745301931864E+05  6.284048973102248274E+05  6.284270006367401220E+05  6.284490560654443689E+05
            6.284709904808762949E+05  6.284928357877944363E+05  6.285145473450566642E+05  6.285358189236512408E+05  6.285557750855067279E+05
            6.285750328179603675E+05  6.285939438799271593E+05  6.286127736116404412E+05  6.286315910338213434E+05  6.286504160648868419E+05
            6.286692957915582228E+05  6.286883996091440786E+05  6.287080235809272854E+05  6.287280065235708607E+05  6.287481184255883563E+05
            6.287682640272780554E+05  6.287884172284248052E+05  6.288085808011821937E+05  6.288288022635814268E+05  6.288492686093916418E+05
            6.288703072163164616E+05  6.288917921238269191E+05  6.289134227016379591E+05  6.289350851828175364E+05  6.289567532490205485E+05
            6.289784249268008862E+05  6.290001089750399115E+05  6.290218133676321013E+05  6.290435543468620162E+05  6.290653052913401043E+05
            6.290870585536406143E+05  6.291088122089849785E+05  6.291305659723374993E+05  6.291523201847296441E+05  6.291740783407532144E+05
            6.291958637684703572E+05  6.292177788792455103E+05  6.292399086365213152E+05  6.292624424070311943E+05  6.292850621650468092E+05
            6.293076990635934053E+05  6.293303358030620730E+05  6.293529541410472011E+05  6.293754808014192386E+05  6.293976106794405496E+05
            6.294195396238893736E+05  6.294413520832798677E+05  6.294631249330928549E+05  6.294848318029743386E+05  6.295064147515655495E+05
            6.295279504212681204E+05  6.295494762750930386E+05  6.295710024824589491E+05  6.295925366230097134E+05  6.296140878338387702E+05
            6.296356564351385459E+05  6.296572324348345865E+05  6.296788292749447282E+05  6.297005229662632337E+05  6.297224747075638734E+05
            6.297445561955294106E+05  6.297666725488970987E+05  6.297888153399728471E+05  6.298110244554693345E+05  6.298333624940257287E+05
            6.298559576142368605E+05
 ETA=    8  6.260526822724390076E+05  6.260539421125409426E+05  6.260550195760927163E+05  6.260557352656961884E+05  6.260561863651524764E+05
            6.260565338250373024E+05  6.260568922640412347E+05  6.260574277465071063E+05  6.260585445733573288E+05  6.260609106656980002E+05
            6.260649321149495663E+05  6.260699453168651089E+05  6.260753319450191921E+05  6.260808112566529308E+05  6.260862826683579478E+05
            6.260916873858134495E+05  6.260970002511403291E+05  6.261023484616433270E+05  6.261081042817285052E+05  6.261148346624282422E+05
            6.261228405333636329E+05  6.261318675963022979E+05  6.261413117033838062E+05  6.261508889621035196E+05  6.261605041390601546E+05
            6.261701655963193625E+05  6.261800100411905441E+05  6.261904609483721433E+05  6.262022059667711146E+05  6.262159341254086467E+05
            6.262307841490049614E+05  6.262460411391193047E+05  6.262614019679222256E+05  6.262767843345778529E+05  6.262921813909608172E+05
            6.263076365462400718E+05  6.263233026792362798E+05  6.263394942936379230E+05  6.263564158698425163E+05  6.263740477147719357E+05
            6.263919001104413765E+05  6.264098233432045672E+05  6.264278107794674579E+05  6.264460126676852815E+05  6.264648346990549471E+05
            6.264845286058918573E+05  6.265053489631660050E+05  6.265266001558240969E+05  6.265480001252549700E+05  6.265694356178920716E+05
            6.265908789297653129E+05  6.266123291718567489E+05  6.266338062483959366E+05  6.266553723834085977E+05  6.266770949725544779E+05
            6.266991022368046688E+05  6.267212406229935586E+05  6.267434224295901367E+05  6.267656148135669064E+05  6.267878118908061879E+05
            6.268100230570930289E+05  6.268322825453795958E+05  6.268546207616124302E+05  6.268771520970348502E+05  6.268997682014188031E+05
            6.269224122572812485E+05  6.269450627580564469E+05  6.269677143834321760E+05  6.269903660328397527E+05  6.270130166712988866E+05
            6.270356624175957404E+05  6.270582687807861948E+05  6.270808582228990272E+05  6.271033783562704921E+05  6.271258931443372276E+05
            6.271483861561024096E+05  6.271708678474962944E+05  6.271933259308096021E+05  6.272157126722435933E+05  6.272379321394129656E+05
            6.272600692706638947E+05  6.272821447121027159E+05  6.273041689490168355E+05  6.273261648679226637E+05  6.273481467020672280E+05
            6.273701251058487687E+05  6.273921061413239222E+05  6.274141027650904143E+05  6.274361486178782070E+05  6.274582758002801565E+05
            6.274804792941207998E+05  6.275027069645113079E+05  6.275249409016094869E+05  6.275471760261460440E+05  6.275694111717847409E+05
            6.275916451564449817E+05  6.276138736370300176E+05  6.276360861471475800E+05  6.276582621108795283E+05  6.276804592510048533E+05
            6.277026584947033552E+05  6.277248587025408633E+05  6.277470594316659262E+05  6.277692618326827651E+05  6.277914714843943948E+05
            6.278137017540414818E+05  6.278359576251930557E+05  6.278581812615126837E+05  6.278803366248371312E+05  6.279024531443322776E+05
            6.279245578282554634E+05  6.279466571833795169E+05  6.279687394640017301E+05  6.279907581277905265E+05  6.280126094187492272E+05
            6.280343403517055558E+05  6.280560119446734898E+05  6.280776679192144657E+05  6.280993211173276650E+05  6.281209746917687589E+05
            6.281426335922753206E+05  6.281643210291808937E+05  6.281861128214047058E+05  6.282080997300163144E+05  6.282302542767570121E+05
            6.282524588143429719E+05  6.282746747199221281E+05  6.282968916987096891E+05  6.283191039771052310E+05  6.283412961211268557E+05
            6.283634293874379946E+05  6.283855059330099029E+05  6.284075474825858837E+05  6.284295679780049250E+05  6.284515404634517618E+05
            6.284733983860325534E+05  6.284951688611189602E+05  6.285168025495702168E+05  6.285379956159290159E+05  6.285579316771846497E+05
            6.285771894312256481E+05  6.285960949798045913E+05  6.286149158783318708E+05  6.286337237780372379E+05  6.286525395749508170E+05
            6.286714114745256957E+05  6.286905071418369189E+05  6.287100930827709381E+05  6.287300335788134253E+05  6.287501092519077938E+05
            6.287702215433437377E+05  6.287903422134625725E+05  6.288104738034912152E+05  6.288306650442121318E+05  6.288511024632873014E+05
            6.288720862124242121E+05  6.288935224937993335E+05  6.289151141848322004E+05  6.289367406795002753E+05  6.289583733883027453E+05
            6.289800103018553928E+05  6.290016617116223788E+05  6.290233367615676252E+05  6.290450544337512692E+05  6.290667837965565268E+05
            6.290885158815076575E+05  6.291102484264132800E+05  6.291319810903365724E+05  6.291537142148641869E+05  6.291754513813764788E+05
            6.291972162427525036E+05  6.292191101171864429E+05  6.292412031959713204E+05  6.292636866255927598E+05  6.292862566066950094E+05
            6.293088442340296460E+05  6.293314316911599599E+05  6.293540001606739825E+05  6.293764761255325284E+05  6.293985681169651216E+05
            6.294204660536432639E+05  6.294422453659250168E+05  6.294639837831605691E+05  6.294856570735140704E+05  6.295072138200190384E+05
            6.295287233285296243E+05  6.295502227993754204E+05  6.295717228714327794E+05  6.295932322353277123E+05  6.296147614790935768E+05
            6.296363109714897582E+05  6.296578687670892105E+05  6.296794481039131060E+05  6.297011243092500372E+05  6.297230431537234690E+05
            6.297450903078791453E+05  6.297671736745212693E+05  6.297892856207634322E+05  6.298114647329089930E+05  6.298337661184811732E+05
            6.298563152631854173E+05
 ETA=    9  6.260590845214218134E+05  6.260605841174381785E+05  6.260618655739850365E+05  6.260627314047148684E+05  6.260632943574798992E+05
            6.260637374972248217E+05  6.260641871533124940E+05  6.260648128232344752E+05  6.260660119635361480E+05  6.260684147333711153E+05
            6.260723834320609458E+05  6.260773210132736713E+05  6.260826316947877640E+05  6.260880349859256530E+05  6.260934266265745973E+05
            6.260987410562897567E+05  6.261039468905678950E+05  6.261091772168795578E+05  6.261148205750301713E+05  6.261214600250191288E+05
            6.261294181982961018E+05  6.261384780560429208E+05  6.261479977767349919E+05  6.261576661162392702E+05  6.261673764731070260E+05
            6.261771345033237012E+05  6.261870767659830162E+05  6.261976201867322670E+05  6.262094142226853874E+05  6.262230856836991152E+05
            6.262378539631239837E+05  6.262530294486054918E+05  6.262683099613309605E+05  6.262836125618658261E+05  6.262989307681168430E+05
            6.263143110754287336E+05  6.263299158787659835E+05  6.263460753584069898E+05  6.263629837479649577E+05  6.263806622340498725E+05
            6.263985828551426530E+05  6.264165813302395400E+05  6.264346461973771220E+05  6.264529262676192448E+05  6.264718143729178701E+05
            6.264915249376525171E+05  6.265123264779327437E+05  6.265335585672033485E+05  6.265549440620499663E+05  6.265763668194569182E+05
            6.265977978792715585E+05  6.266192360095218755E+05  6.266407009553204989E+05  6.266622532381230267E+05  6.266839535282803699E+05
            6.267059227667502128E+05  6.267280192805151455E+05  6.267501589113834780E+05  6.267723091830082703E+05  6.267944643220223952E+05
            6.268166341075466480E+05  6.268388532753204927E+05  6.268611500251168618E+05  6.268836344345549587E+05  6.269062028616435127E+05
            6.269287995649618097E+05  6.269514028495992534E+05  6.269740072938273661E+05  6.269966117628015345E+05  6.270192151872642571E+05
            6.270418135392934782E+05  6.270643726003285265E+05  6.270869125134857604E+05  6.271093743700567866E+05  6.271318301558700623E+05
            6.271542615504519781E+05  6.271766807106805500E+05  6.271990760038843146E+05  6.272214012195728719E+05  6.272435668879859149E+05
            6.272656519098473946E+05  6.272876727275716839E+05  6.273096365429447033E+05  6.273315682279273169E+05  6.273534838651495520E+05
            6.273753955584717914E+05  6.273973101369645447E+05  6.274192419030577876E+05  6.274412274526350666E+05  6.274632997284870362E+05
            6.274854555304364767E+05  6.275076380257625133E+05  6.275298274888106389E+05  6.275520182741829194E+05  6.275742090590925654E+05
            6.275963983991572168E+05  6.276185808479451807E+05  6.276407426084795734E+05  6.276628557731121546E+05  6.276849815148959169E+05
            6.277071053395066410E+05  6.277292291430926416E+05  6.277513533268910833E+05  6.277734794104744215E+05  6.277956138964545680E+05
            6.278177725257735001E+05  6.278399630000399193E+05  6.278621264201638987E+05  6.278842268246742897E+05  6.279062893454108853E+05
            6.279283400181353791E+05  6.279503853296552552E+05  6.279724136301181279E+05  6.279943796229887521E+05  6.280161859804057749E+05
            6.280378774464689195E+05  6.280595103907067096E+05  6.280811276355641894E+05  6.281027420636664610E+05  6.281243568758987822E+05
            6.281459770836937241E+05  6.281676259435435059E+05  6.281893773855069885E+05  6.282113133187186904E+05  6.282334118995700264E+05
            6.282555602059455123E+05  6.282777199742601952E+05  6.282998807238613954E+05  6.283220360554502113E+05  6.283441683810841059E+05
            6.283662333628017223E+05  6.283882335627998691E+05  6.284101940570404986E+05  6.284321321055764565E+05  6.284540225839480991E+05
            6.284758037186773727E+05  6.284974994178964989E+05  6.285190576748439344E+05  6.285401799813914113E+05  6.285600934022656875E+05
            6.285793451176790986E+05  6.285982433592892485E+05  6.286170550992877688E+05  6.286358534174589440E+05  6.286546597230827902E+05
            6.286735225294398842E+05  6.286926061380906031E+05  6.287121569916101871E+05  6.287320570950569818E+05  6.287520970781163778E+05
            6.287721761705053505E+05  6.287922643297808245E+05  6.288123637206979329E+05  6.288325234855746385E+05  6.288529279212618712E+05
            6.288738601331543177E+05  6.288952497963730711E+05  6.289168031262323493E+05  6.289383937752322527E+05  6.289599912115077022E+05
            6.289815934456622927E+05  6.290032123100424651E+05  6.290248580897920765E+05  6.290465525167093147E+05  6.290682603680300526E+05
            6.290899713503103703E+05  6.291116828598803841E+05  6.291333944975950290E+05  6.291551065953726647E+05  6.291768227195206564E+05
            6.291985663983130362E+05  6.292204366931390250E+05  6.292424942773816874E+05  6.292649291152680526E+05  6.292874498253404163E+05
            6.293099883412962081E+05  6.293325266782280523E+05  6.293550457973319571E+05  6.293774727976042777E+05  6.293995272657134337E+05
            6.294213923941324465E+05  6.294431381877835374E+05  6.294648424769091653E+05  6.294864829390316736E+05  6.295080127030288568E+05
            6.295294958703195443E+05  6.295509689710283419E+05  6.295724429599302821E+05  6.295939276064812439E+05  6.296154349301343318E+05
            6.296369653522350127E+05  6.296585049154356821E+05  6.296800663411158603E+05  6.297017234093860025E+05  6.297236109255250776E+05
            6.297456244120337069E+05  6.297676749243929517E+05  6.297897558113030391E+05  6.298119038288473384E+05  6.298341686992696486E+05
            6.298566729121338576E+05
 ETA=   10  6.260654867704045027E+05  6.260672258528067032E+05  6.260687105944111245E+05  6.260697259068156127E+05  6.260703999908592086E+05
            6.260709378463973990E+05  6.260714769936872181E+05  6.260721886236871360E+05  6.260734608447988285E+05  6.260758936874603387E+05
            6.260798188195916591E+05  6.260846868663158966E+05  6.260899227938477416E+05  6.260952498972661560E+05  6.261005611889939755E+05
            6.261057846100300085E+05  6.261108823604998179E+05  6.261159923447683686E+05  6.261215189732660074E+05  6.261280667986948974E+05
            6.261359810458684806E+05  6.261450752594493097E+05  6.261546705523317214E+05  6.261644296097713523E+05  6.261742346155217383E+05
            6.261840880533102900E+05  6.261941245265271282E+05  6.262047512633455917E+05  6.262165866102415603E+05  6.262302122099684784E+05
            6.262449058736906154E+05  6.262600015699315118E+05  6.262752020847620443E+05  6.262904248504076386E+05  6.263056639972276753E+05
            6.263209688581546070E+05  6.263365107019939460E+05  6.263526365846394328E+05  6.263695339011352044E+05  6.263872601990364492E+05
            6.264052492338857846E+05  6.264233227794399718E+05  6.264414641774783377E+05  6.264598186439337442E+05  6.264787665733329486E+05
            6.264984971070509637E+05  6.265192852629715344E+05  6.265405005328245461E+05  6.265618721628618659E+05  6.265832824112520320E+05
            6.266047013496233849E+05  6.266261273997917306E+05  6.266475798585892189E+05  6.266691172155388631E+05  6.266907947091872338E+05
            6.267127275438891957E+05  6.267347831811455544E+05  6.267568809958320344E+05  6.267789893584265374E+05  6.268011026943634497E+05
            6.268232310832405929E+05  6.268454095387450652E+05  6.268676644264783245E+05  6.268901028632660164E+05  6.269126242555759382E+05
            6.269351738896358293E+05  6.269577301594376331E+05  6.269802876036999514E+05  6.270028450739970431E+05  6.270254014734942466E+05
            6.270479526704802411E+05  6.270704646868526470E+05  6.270929551548612071E+05  6.271153588524286170E+05  6.271377557800109498E+05
            6.271601257374471752E+05  6.271824826174993068E+05  6.272048156729253242E+05  6.272270802630919497E+05  6.272491918534549186E+05
            6.272712243312716018E+05  6.272931904656540137E+05  6.273150939658695133E+05  6.273369615611429326E+05  6.273588111461778171E+05
            6.273806562672908185E+05  6.274025045155946864E+05  6.274243714947942644E+05  6.274462967463219538E+05  6.274683143667596160E+05
            6.274904226969422307E+05  6.275125601761545986E+05  6.275347053076324519E+05  6.275568518926758552E+05  6.275789984515564283E+05
            6.276011432644978631E+05  6.276232797284204280E+05  6.276453906407736940E+05  6.276674409976808820E+05  6.276894957777844975E+05
            6.277115444681873778E+05  6.277335920318962308E+05  6.277556398091615411E+05  6.277776897133883322E+05  6.277997491909660166E+05
            6.278218363980667200E+05  6.278439618562845280E+05  6.278660654829695122E+05  6.278881106344604632E+05  6.279101190737897996E+05
            6.279321158261641394E+05  6.279541072677915217E+05  6.279760820199802984E+05  6.279979962111862842E+05  6.280197576474967645E+05
            6.280414090381044662E+05  6.280630031613908941E+05  6.280845817253027344E+05  6.281061574738570489E+05  6.281277336066918215E+05
            6.281493151273436379E+05  6.281709250057501486E+05  6.281926351189655252E+05  6.282145209464046638E+05  6.282365643756095087E+05
            6.282586567627695622E+05  6.282807605409008684E+05  6.283028651756197214E+05  6.283249636632254114E+05  6.283470362631883472E+05
            6.283690330590485828E+05  6.283909570430560270E+05  6.284128366368784336E+05  6.284346925546161365E+05  6.284565016253112117E+05
            6.284782058609672822E+05  6.284998268431542674E+05  6.285213115088792983E+05  6.285423678075431380E+05  6.285622571428560186E+05
            6.285814988904815400E+05  6.286003885316918604E+05  6.286191908910614438E+05  6.286379795725424774E+05  6.286567762207923224E+05
            6.286756289648878155E+05  6.286946982236121548E+05  6.287142156970988726E+05  6.287340768365972908E+05  6.287540815124385990E+05
            6.287741274920863798E+05  6.287941831593732350E+05  6.288142502275060397E+05  6.288343775668171002E+05  6.288547466688838322E+05
            6.288756293035881827E+05  6.288969737618843792E+05  6.289184891132694902E+05  6.289400440381316002E+05  6.289616062859812519E+05
            6.289831739261931507E+05  6.290047603386049159E+05  6.290263769216084620E+05  6.290480481668096036E+05  6.290697345781136537E+05
            6.290914245335784508E+05  6.291131150843417272E+05  6.291348057713027811E+05  6.291564969069268554E+05  6.291781919836018933E+05
            6.291999140288219787E+05  6.292217593699796125E+05  6.292437821890154155E+05  6.292661696061439579E+05  6.292886414500307292E+05
            6.293111309999019140E+05  6.293336203631811077E+05  6.293560905457944609E+05  6.293784697223246330E+05  6.294004869145045523E+05
            6.294223181493420852E+05  6.294440301668930333E+05  6.294657005761109758E+05  6.294873086797742872E+05  6.295088110284705181E+05
            6.295302677361029200E+05  6.295517145018316805E+05  6.295731624679036904E+05  6.295946224643484456E+05  6.296161079226832371E+05
            6.296376193216000684E+05  6.296591406602762872E+05  6.296806838808319299E+05  6.297023208633587928E+05  6.297241780093675479E+05
            6.297461583386275452E+05  6.297681761196653824E+05  6.297902258112840354E+05  6.298123420883830404E+05  6.298345705560885835E+05
            6.298570305610822979E+05
 ETA=   11  6.260718890193873085E+05  6.260738671981864609E+05  6.260755545807792805E+05  6.260767189032949973E+05  6.260775036077421391E+05
            6.260781354809342884E+05  6.260787628778319340E+05  6.260795575565526960E+05  6.260808972257474670E+05  6.260833554080675822E+05
            6.260872432155929273E+05  6.260920450721028028E+05  6.260972071922945324E+05  6.261024578970847651E+05  6.261076883996829856E+05
            6.261128202738359105E+05  6.261178091695529874E+05  6.261227972950529074E+05  6.261282045335972216E+05  6.261346602763759438E+05
            6.261425330172193935E+05  6.261516623402446276E+05  6.261613331278428668E+05  6.261711825898194220E+05  6.261810818558520405E+05
            6.261910298785878113E+05  6.262011580978612183E+05  6.262118626055542845E+05  6.262237337994491681E+05  6.262373210417958908E+05
            6.262519441016059136E+05  6.262669613769926364E+05  6.262820820625519846E+05  6.262972249604836106E+05  6.263123849166614236E+05
            6.263276139395490754E+05  6.263430919447677443E+05  6.263591832209283020E+05  6.263760708780665882E+05  6.263938456042517209E+05
            6.264119031849313760E+05  6.264300516969971359E+05  6.264482689128328348E+05  6.264666956447302364E+05  6.264856990716217551E+05
            6.265054519355170196E+05  6.265262301576957107E+05  6.265474300595312379E+05  6.265687882851747563E+05  6.265901861871228321E+05
            6.266115931140726898E+05  6.266330071170647861E+05  6.266544468896908220E+05  6.266759686661378946E+05  6.266976230274992995E+05
            6.267195205896624830E+05  6.267415359632925829E+05  6.267635922480552690E+05  6.267856588563837577E+05  6.268077305016681785E+05
            6.268298175087556010E+05  6.268519550432091346E+05  6.268741678055621451E+05  6.268965609549821820E+05  6.269190357142154826E+05
            6.269415385044325376E+05  6.269640479135771748E+05  6.269865585016958648E+05  6.270090691153174266E+05  6.270315786424004473E+05
            6.270540828513734741E+05  6.270765480163564207E+05  6.270989891096263891E+05  6.271213347500258824E+05  6.271436729462397052E+05
            6.271659816087194486E+05  6.271882764065506635E+05  6.272105475838874700E+05  6.272327521701564547E+05  6.272548094987333752E+05
            6.272767891951461788E+05  6.272987006160313031E+05  6.273205438915098784E+05  6.273423475164797856E+05  6.273641311661328655E+05
            6.273859098264878849E+05  6.274076918466548668E+05  6.274294941177692963E+05  6.274513590932323132E+05  6.274733222420754610E+05
            6.274953832507519983E+05  6.275174758331507910E+05  6.275395767430855194E+05  6.275616792358484818E+05  6.275837816736934474E+05
            6.276058820501695154E+05  6.276279725713864900E+05  6.276500325828170171E+05  6.276720201388188871E+05  6.276940042779502692E+05
            6.277159780318922130E+05  6.277379494849836919E+05  6.277599209629269317E+05  6.277818947959084762E+05  6.278038793885315536E+05
            6.278258953397581354E+05  6.278479560268438654E+05  6.278700001609518658E+05  6.278919898660522886E+05  6.279139441980209667E+05
            6.279358870970720891E+05  6.279578248031679541E+05  6.279797462891836185E+05  6.280016092628230108E+05  6.280233257937930757E+05
            6.280449367276832927E+05  6.280664919371159049E+05  6.280880318581043975E+05  6.281095689973307308E+05  6.281311065169116482E+05
            6.281526493513794849E+05  6.281742200307921739E+05  6.281958881450984627E+05  6.282177244808595860E+05  6.282397132782054832E+05
            6.282617499636500143E+05  6.282837978597643087E+05  6.283058464632615214E+05  6.283278881801740499E+05  6.283499011159547372E+05
            6.283718297965975944E+05  6.283936776671067346E+05  6.284154764813628281E+05  6.284372504729547072E+05  6.284589785497641424E+05
            6.284806058067550184E+05  6.285021521653922973E+05  6.285235643589793472E+05  6.285445578135951655E+05  6.285644220532423351E+05
            6.285836513349338202E+05  6.286025315611159895E+05  6.286213243808957050E+05  6.286401033980016364E+05  6.286588902614630060E+05
            6.286777323803607142E+05  6.286967857145495946E+05  6.287162710088983877E+05  6.287360940792347537E+05  6.287560637070570374E+05
            6.287760766355219530E+05  6.287960998295648023E+05  6.288161344758411869E+05  6.288362288434823276E+05  6.288565609950498911E+05
            6.288773954342937795E+05  6.288986955575641477E+05  6.289201731858387357E+05  6.289416924698430812E+05  6.289632195883214008E+05
            6.289847526967150625E+05  6.290063067258022493E+05  6.290278941618771059E+05  6.290495422664984362E+05  6.290712072853143327E+05
            6.290928762656869367E+05  6.291145459100364242E+05  6.291362156975967810E+05  6.291578859160785796E+05  6.291795599320693873E+05
            6.292012600815392798E+05  6.292230795243175235E+05  6.292450680858130800E+05  6.292674088493816089E+05  6.292898320841756649E+05
            6.293122727674533380E+05  6.293347132573943818E+05  6.293571347636410501E+05  6.293794668619749136E+05  6.294014469450779725E+05
            6.294232435634464491E+05  6.294449216554948362E+05  6.294665583305018954E+05  6.294881344007145381E+05  6.295096090304306708E+05
            6.295310392110736575E+05  6.295524596599675715E+05  6.295738816427862039E+05  6.295953170339972712E+05  6.296167806592178531E+05
            6.296382730620125076E+05  6.296597761708461912E+05  6.296813010137332603E+05  6.297029172456619563E+05  6.297247446845406666E+05
            6.297466921688928269E+05  6.297686772966338322E+05  6.297906957079657586E+05  6.298127798023420619E+05  6.298349719436262967E+05
            6.298573882100307383E+05
 ETA=   12  6.260782912683701143E+05  6.260805080755600939E+05  6.260823975189201301E+05  6.260837105063606286E+05  6.260846054748625029E+05
            6.260853308492563665E+05  6.260860456161603797E+05  6.260869214389793342E+05  6.260883248094915180E+05  6.260908059870051220E+05
            6.260946594247536268E+05  6.260993974803906167E+05  6.261044861902382690E+05  6.261096603308785707E+05  6.261148096770079574E+05
            6.261198495724292006E+05  6.261247290999798570E+05  6.261295943506519543E+05  6.261348806924101664E+05  6.261412441981896991E+05
            6.261490766535328003E+05  6.261582414746632567E+05  6.261679875470155384E+05  6.261779271431218367E+05  6.261879203553595580E+05
            6.261979623835041421E+05  6.262081807690558489E+05  6.262189593623641413E+05  6.262308637952624122E+05  6.262444163163350895E+05
            6.262589716980066150E+05  6.262739112580755027E+05  6.262889522483171895E+05  6.263040152369851712E+05  6.263190959085898940E+05
            6.263342488726939773E+05  6.263496624806098407E+05  6.263657187858709367E+05  6.263825973746817326E+05  6.264004209109721705E+05
            6.264185470576012740E+05  6.264367704331452260E+05  6.264550630754352314E+05  6.264735604876744328E+05  6.264926172491770703E+05
            6.265123935926826671E+05  6.265331639833792578E+05  6.265543494920973899E+05  6.265756945914264070E+05  6.265970802658998873E+05
            6.266184752585947281E+05  6.266398772495043231E+05  6.266613042082114844E+05  6.266828100202417700E+05  6.267044411192686530E+05
            6.267263040240081027E+05  6.267482795842234045E+05  6.267702945229621837E+05  6.267923194949268363E+05  6.268143495374139166E+05
            6.268363951886290452E+05  6.268584916851788294E+05  6.268806622308621882E+05  6.269030104636455653E+05  6.269254388904380612E+05
            6.269478949886993505E+05  6.269703576554697938E+05  6.269928214964009821E+05  6.270152853625421412E+05  6.270377481283505913E+05
            6.270602054807466920E+05  6.270826239210715285E+05  6.271050157019917388E+05  6.271273033678969368E+05  6.271495829345881939E+05
            6.271718304165995214E+05  6.271940632722313749E+05  6.272162728349297540E+05  6.272384177795279538E+05  6.272604207877665758E+05
            6.272823475548105780E+05  6.273042042558812536E+05  6.273259873813891318E+05  6.273477271322446177E+05  6.273694449395630509E+05
            6.273911572267595911E+05  6.274128731034180382E+05  6.274346107340296730E+05  6.274564154860036215E+05  6.274783242784247268E+05
            6.275003380706473254E+05  6.275223858437791932E+05  6.275444426169848302E+05  6.275665011018140940E+05  6.275885595006224466E+05
            6.276106155122928321E+05  6.276326601255026180E+05  6.276546692118442152E+05  6.276765940055476967E+05  6.276985077113620937E+05
            6.277204066847353242E+05  6.277423021265167044E+05  6.277641973919792799E+05  6.277860952417444205E+05  6.278080050505823456E+05
            6.278299498732095817E+05  6.278519459631006466E+05  6.278739307786478894E+05  6.278958649616583716E+05  6.279177651744660689E+05
            6.279396542824805947E+05  6.279615383511650143E+05  6.279834067786546657E+05  6.280052188891412225E+05  6.280268905476457439E+05
            6.280484608167789411E+05  6.280699770581657067E+05  6.280914783754769014E+05  6.281129769626784837E+05  6.281344759226274909E+05
            6.281559800914153457E+05  6.281775114180679666E+05  6.281991372072835220E+05  6.282209243885112228E+05  6.282428589070821181E+05
            6.282648400472508511E+05  6.282868321469932562E+05  6.283088247888988117E+05  6.283308097949224757E+05  6.283527631149161607E+05
            6.283746237391674658E+05  6.283963955881126458E+05  6.284181137212608010E+05  6.284398059470369481E+05  6.284614532793330727E+05
            6.284830035506132990E+05  6.285044753453645390E+05  6.285258158708823612E+05  6.285467482657796936E+05  6.285665868950287113E+05
            6.285858021940223407E+05  6.286046724588877987E+05  6.286234556431317469E+05  6.286422249705776339E+05  6.286610019767826889E+05
            6.286798330549916718E+05  6.286988696334838169E+05  6.287183233779181028E+05  6.287381089708439540E+05  6.287580437171190279E+05
            6.287780236362091964E+05  6.287980143712272402E+05  6.288180165496179834E+05  6.288380775485020131E+05  6.288583719182079658E+05
            6.288791589103230508E+05  6.289004152752435766E+05  6.289218553472040221E+05  6.289433390547231538E+05  6.289648310957895592E+05
            6.289863297284339787E+05  6.290078514370400226E+05  6.290294097703786101E+05  6.290510347701623105E+05  6.290726784387486987E+05
            6.290943264904980315E+05  6.291159752757914830E+05  6.291376242108372971E+05  6.291592735537430272E+05  6.291809265196862398E+05
            6.292026045909536770E+05  6.292243976412889315E+05  6.292463522356866160E+05  6.292686468293863581E+05  6.292910216502260882E+05
            6.293134135496761883E+05  6.293358052493549185E+05  6.293581782766972901E+05  6.293804637591486098E+05  6.294024068408026360E+05
            6.294241684506466845E+05  6.294458125225490658E+05  6.294674155811259989E+05  6.294889598076451803E+05  6.295104065740598598E+05
            6.295318101882508490E+05  6.295532043478186242E+05  6.295746003876592731E+05  6.295960112190790242E+05  6.296174530440031085E+05
            6.296389264789128210E+05  6.296604113709385274E+05  6.296819177190599730E+05  6.297035128632434644E+05  6.297253109680162743E+05
            6.297472258390525822E+05  6.297691783817562973E+05  6.297911654656246537E+05  6.298132171445400454E+05  6.298353730202628067E+05
            6.298577458589791786E+05
 ETA=   13  6.260846935173528036E+05  6.260871485170167871E+05  6.260892395429442404E+05  6.260907010091834236E+05  6.260917060567931039E+05
            6.260925246166470461E+05  6.260933261821939377E+05  6.260942819330488564E+05  6.260957468876884086E+05  6.260982493053312646E+05
            6.261020704839674290E+05  6.261067458820699248E+05  6.261117615091033513E+05  6.261168589350071270E+05  6.261219268670900492E+05
            6.261268744860298466E+05  6.261316443123875652E+05  6.261363861616628710E+05  6.261415507821409265E+05  6.261478220113889547E+05
            6.261556149606030667E+05  6.261648153186024865E+05  6.261746364782269811E+05  6.261846659920871025E+05  6.261947529399953783E+05
            6.262048885977814207E+05  6.262151961465534987E+05  6.262260467771282420E+05  6.262379824949835893E+05  6.262515029268990038E+05
            6.262659920817187522E+05  6.262808544763447717E+05  6.262958158324292162E+05  6.263107988949808059E+05  6.263258002348744776E+05
            6.263408770255618729E+05  6.263562260257910239E+05  6.263722471182356821E+05  6.263891170200983761E+05  6.264069894869984128E+05
            6.264251841933100950E+05  6.264434823677964741E+05  6.264618501364352414E+05  6.264804174430180574E+05  6.264995259923115373E+05
            6.265193266869330546E+05  6.265400905151717598E+05  6.265612621914927149E+05  6.265825943581556203E+05  6.266039678808575263E+05
            6.266253509963306133E+05  6.266467410008190200E+05  6.266681550834786613E+05  6.266896447081683436E+05  6.267112524449164048E+05
            6.267330811243432108E+05  6.267550171233912697E+05  6.267769908514197450E+05  6.267989742675699526E+05  6.268209627712174552E+05
            6.268429670947293052E+05  6.268650225023210514E+05  6.268871507594293216E+05  6.269094543429465266E+05  6.269318366069346666E+05
            6.269542461229064502E+05  6.269766621280302061E+05  6.269990792983979918E+05  6.270214964927055407E+05  6.270439125769889215E+05
            6.270663231545242015E+05  6.270886949567995034E+05  6.271110374637092464E+05  6.271332672159640351E+05  6.271554882329469547E+05
            6.271776746164414799E+05  6.271998456305095460E+05  6.272219937357604504E+05  6.272440792844740208E+05  6.272660279251242755E+05
            6.272879016891107894E+05  6.273097036661171587E+05  6.273314266973251943E+05  6.273531026465976611E+05  6.273747546793968650E+05
            6.273964006564968731E+05  6.274180504507246660E+05  6.274397235009128926E+05  6.274614680708941305E+05  6.274833225842586253E+05
            6.275052892207580153E+05  6.275272922411860200E+05  6.275493049351023510E+05  6.275713194698882289E+05  6.275933338858289644E+05
            6.276153455800043885E+05  6.276373443064036546E+05  6.276593024499251042E+05  6.276811645083387848E+05  6.277030079326385166E+05
            6.277248322270143544E+05  6.277466517279711552E+05  6.277684708406628342E+05  6.277902927690165816E+05  6.278121278670271859E+05
            6.278340016515565803E+05  6.278559332436373224E+05  6.278778588593347231E+05  6.278997374644486699E+05  6.279215835634537507E+05
            6.279434189204807626E+05  6.279652494201019872E+05  6.279870649131059181E+05  6.280088263906418579E+05  6.280304531970291864E+05
            6.280519826748793712E+05  6.280734599241933320E+05  6.280949226635007653E+05  6.281163827376875561E+05  6.281378431752775796E+05
            6.281593086883195210E+05  6.281808005920336582E+05  6.282023838247252861E+05  6.282241220903526992E+05  6.282460025395842968E+05
            6.282679282340150094E+05  6.282898645934712840E+05  6.283118013181578135E+05  6.283337296485281549E+05  6.283556233757893788E+05
            6.283774159786913078E+05  6.283991118745248532E+05  6.284207493982083397E+05  6.284423599536753027E+05  6.284639267092135269E+05
            6.284853999809368979E+05  6.285067972707276931E+05  6.285280665678961668E+05  6.285489390659700148E+05  6.285687517116473755E+05
            6.285879521160677541E+05  6.286068121096789837E+05  6.286255855952943675E+05  6.286443452226514928E+05  6.286631123188644415E+05
            6.286819321424557129E+05  6.287009513900767779E+05  6.287203740380930249E+05  6.287401224985085428E+05  6.287600224644265836E+05
            6.287799693995802663E+05  6.287999276865113061E+05  6.288198973600402242E+05  6.288399247903475771E+05  6.288601808029607637E+05
            6.288809208881721133E+05  6.289021338132700184E+05  6.289235364246761892E+05  6.289449845933588222E+05  6.289664415892651305E+05
            6.289879057835501153E+05  6.290093952151426347E+05  6.290309244711496867E+05  6.290525263836849481E+05  6.290741487254064996E+05
            6.290957758760717697E+05  6.291174038307686569E+05  6.291390319413465913E+05  6.291606604338798206E+05  6.291822923498345772E+05
            6.292039482484061737E+05  6.292257145637698704E+05  6.292476353913109051E+05  6.292698841154925758E+05  6.292922106340711471E+05
            6.293145538000914967E+05  6.293368967600299511E+05  6.293592214199069422E+05  6.293814605727945454E+05  6.294033667201370699E+05
            6.294250930652216775E+05  6.294467030697364826E+05  6.294682725744352210E+05  6.294897850860522594E+05  6.295112038831008831E+05
            6.295325809112227289E+05  6.295539487947273301E+05  6.295753189157621237E+05  6.295967052158804145E+05  6.296181252562975278E+05
            6.296395797359346179E+05  6.296610464120741235E+05  6.296825342038846575E+05  6.297041080182631267E+05  6.297258770448619034E+05
            6.297477594315977767E+05  6.297696794279719470E+05  6.297916351559932809E+05  6.298136542590863537E+05  6.298357739072407130E+05
            6.298581035079277353E+05
 ETA=   14  6.260910957663354930E+05  6.260937885413297918E+05  6.260960807448979467E+05  6.260976906011399115E+05  6.260988056533742929E+05
            6.260997172052323585E+05  6.261006052000042982E+05  6.261016401276743272E+05  6.261031652974033495E+05  6.261056881818119437E+05
            6.261094779622245114E+05  6.261140915348983835E+05  6.261190341865973314E+05  6.261240547931524925E+05  6.261290411110831192E+05
            6.261338962282981956E+05  6.261385561603973620E+05  6.261431743087073555E+05  6.261482168546025641E+05  6.261543959192072507E+05
            6.261621497007197468E+05  6.261713855099058710E+05  6.261812815170660615E+05  6.261914007687439444E+05  6.262015812924575293E+05
            6.262118103305088589E+05  6.262222064311716240E+05  6.262331277690147981E+05  6.262450939610973001E+05  6.262585834164029220E+05
            6.262730074083530344E+05  6.262877928924026201E+05  6.263026746633531293E+05  6.263175777819061186E+05  6.263324997626254335E+05
            6.263475003423603484E+05  6.263627846454550745E+05  6.263787705486173509E+05  6.263956318206856959E+05  6.264135532441614196E+05
            6.264318164533551317E+05  6.264501893621218624E+05  6.264686321027119411E+05  6.264872687133611180E+05  6.265064283650896978E+05
            6.265262537960353075E+05  6.265470117946958635E+05  6.265681699979756959E+05  6.265894893352774670E+05  6.266108507550256327E+05
            6.266322220281191403E+05  6.266536000656335382E+05  6.266750012304461561E+05  6.266964745415241923E+05  6.267180588883578312E+05
            6.267398535586562939E+05  6.267617501768296352E+05  6.267836827744035982E+05  6.268056246900103288E+05  6.268275716991347726E+05
            6.268495347181449179E+05  6.268715490113811102E+05  6.268936349660919514E+05  6.269158940302658593E+05  6.269382302522760583E+05
            6.269605932531519793E+05  6.269829626520896563E+05  6.270053332037519431E+05  6.270277037781308172E+05  6.270500732328298036E+05
            6.270724370935680345E+05  6.270947623071331764E+05  6.271170555651491741E+05  6.271392274468904361E+05  6.271613899728489341E+05
            6.271835153188061668E+05  6.272056245572667103E+05  6.272277113146363990E+05  6.272497376012748573E+05  6.272716318679493852E+05
            6.272934525793304201E+05  6.273151998304553563E+05  6.273368628085600212E+05  6.273584750108136795E+05  6.273800613189078867E+05
            6.274016410309723578E+05  6.274232247888570419E+05  6.274448333055205876E+05  6.274665177392815240E+05  6.274883180150666740E+05
            6.275102375300347339E+05  6.275321958330064081E+05  6.275541644866408315E+05  6.275761351116044680E+05  6.275981055835424922E+05
            6.276200729920924641E+05  6.276420258421100443E+05  6.276639330286796903E+05  6.276857323837366421E+05  6.277075056245769374E+05
            6.277292553172737826E+05  6.277509989274614491E+05  6.277727419310996775E+05  6.277944879840505309E+05  6.278162484274547314E+05
            6.278380512403561734E+05  6.278599183988244040E+05  6.278817848748188699E+05  6.279036078863621224E+05  6.279253998750895262E+05
            6.279471815131191397E+05  6.279689584895683220E+05  6.279907211353441235E+05  6.280124321120268432E+05  6.280340140873437049E+05
            6.280555027100996813E+05  6.280769409536258318E+05  6.280983651363160461E+05  6.281197867257606704E+05  6.281412086677488405E+05
            6.281626355392779224E+05  6.281840879687279230E+05  6.282056285474633332E+05  6.282273180182437645E+05  6.282491445351711009E+05
            6.282710148513314780E+05  6.282928955109263770E+05  6.283147763510630466E+05  6.283366480295810616E+05  6.283584821761460043E+05
            6.283802067822125973E+05  6.284018267832581187E+05  6.284233837538041407E+05  6.284449127113197464E+05  6.284663989858855493E+05
            6.284877952682201285E+05  6.285091180864843773E+05  6.285303164633263368E+05  6.285511296690310119E+05  6.285709161568998825E+05
            6.285901011438850546E+05  6.286089506685052766E+05  6.286277144208701793E+05  6.286464643381980713E+05  6.286652214964969316E+05
            6.286840299083883874E+05  6.287030315519369906E+05  6.287224233217845904E+05  6.287421348711573519E+05  6.287620001151358010E+05
            6.287819140805035131E+05  6.288018399260997539E+05  6.288217770803418243E+05  6.288417707983620930E+05  6.288619881975038443E+05
            6.288826816536217229E+05  6.289038513361600926E+05  6.289252165401781676E+05  6.289466291955019115E+05  6.289680511719111819E+05
            6.289894809591852827E+05  6.290109381514735287E+05  6.290324383497631643E+05  6.290540171868536854E+05  6.290756182195182191E+05
            6.290972244911418529E+05  6.291188316383524798E+05  6.291404389474597992E+05  6.291620466102876235E+05  6.291836574845273281E+05
            6.292052911446571816E+05  6.292270305650067749E+05  6.292489177331378451E+05  6.292711207682139939E+05  6.292933990664454177E+05
            6.293156935380527284E+05  6.293379877972122049E+05  6.293602641712450422E+05  6.293824571623345837E+05  6.294043264149611350E+05
            6.294260173712712713E+05  6.294475932808051584E+05  6.294691292815925553E+05  6.294906101489206776E+05  6.295120009339941898E+05
            6.295333513654005947E+05  6.295546929883607663E+05  6.295760372130143223E+05  6.295973990085471887E+05  6.296187972785118036E+05
[...]
            4.220053041361759417E+06  4.220059031373918988E+06  4.220064734711710364E+06  4.220070392289297655E+06  4.220076053925489075E+06
            4.220081719390389509E+06  4.220087383892005309E+06  4.220093040296798572E+06  4.220098668173284270E+06  4.220104276319610886E+06
            4.220109908020028844E+06  4.220115556137456559E+06  4.220121209672442637E+06  4.220126864432877861E+06  4.220132519331663847E+06
            4.220138173034953885E+06  4.220143819206266664E+06  4.220149434013866819E+06  4.220154978586619720E+06  4.220160470102200285E+06
            4.220165940384239890E+06  4.220171406349259429E+06  4.220176880854641087E+06  4.220182408735389821E+06  4.220188172646164894E+06
            4.220194751422279514E+06  4.220202520192167722E+06  4.220210645108072087E+06  4.220218860592799261E+06  4.220227112899872474E+06
            4.220235408009658568E+06  4.220243741513532586E+06  4.220252129659750499E+06  4.220260688478280790E+06  4.220269687610635534E+06
            4.220279707270076498E+06  4.220290059045553207E+06  4.220300490730999038E+06  4.220310936742259189E+06  4.220321382535635494E+06
            4.220331815640074201E+06  4.220342196400816552E+06  4.220352422772068530E+06  4.220362284549110569E+06  4.220371695167873055E+06
            4.220380975323561579E+06  4.220390225914944895E+06  4.220399465897703543E+06  4.220408668511275202E+06  4.220417690907111391E+06
            4.220426030290149152E+06  4.220432296714860946E+06  4.220437850820457563E+06  4.220443233851929195E+06  4.220448575654448010E+06
            4.220453849734712392E+06  4.220458820949867368E+06  4.220462664551541209E+06  4.220465323743055575E+06  4.220467655070424080E+06
            4.220469917486139573E+06  4.220472168820121326E+06  4.220474419288252480E+06  4.220476673334146850E+06  4.220478948319726624E+06
            4.220481314942786470E+06  4.220483963516124524E+06  4.220486567903847434E+06  4.220489059671178460E+06  4.220491501692728139E+06
            4.220493931350803003E+06  4.220496362929026596E+06  4.220498821461535059E+06  4.220501414264094085E+06  4.220504480395411141E+06
            4.220508772232715040E+06  4.220513413822905160E+06  4.220518133651398122E+06  4.220522881956695579E+06  4.220527661017846316E+06
            4.220532453557062894E+06  4.220537243712306023E+06  4.220541994370464236E+06  4.220546538879291154E+06  4.220550271938959137E+06
            4.220553452232366428E+06  4.220556496819295920E+06  4.220559508793896064E+06  4.220562484128733166E+06  4.220565375366074033E+06
            4.220568140931341797E+06  4.220570509324657731E+06  4.220572135080181994E+06  4.220573544454650953E+06  4.220574839013988152E+06
            4.220576087443256751E+06
 ETA=   39  4.220676638604779728E+06  4.220657934536566958E+06  4.220638833513387479E+06  4.220618340409522876E+06  4.220597493173934519E+06
            4.220576541642783210E+06  4.220555561892173253E+06  4.220534573507904075E+06  4.220513576162341051E+06  4.220492590904464945E+06
            4.220471608554629609E+06  4.220450634546041489E+06  4.220429663809348829E+06  4.220408692238354124E+06  4.220387713558979332E+06
            4.220366709907175042E+06  4.220345654290989041E+06  4.220324541497183032E+06  4.220303520782281645E+06  4.220282868039752357E+06
            4.220264367734965868E+06  4.220246663695249707E+06  4.220229419818742201E+06  4.220212304695740342E+06  4.220195221547143534E+06
            4.220178146750953980E+06  4.220161081269128248E+06  4.220144041526852176E+06  4.220127062044487335E+06  4.220110142258383334E+06
            4.220093270029807463E+06  4.220076417577967048E+06  4.220059571113777347E+06  4.220042728560926393E+06  4.220025903531893156E+06
            4.220009166377174668E+06  4.219992794495307840E+06  4.219977757794586010E+06  4.219968092409385368E+06  4.219961201361833140E+06
            4.219955182470660657E+06  4.219949393906106241E+06  4.219943664393996820E+06  4.219937974295385182E+06  4.219932378869893961E+06
            4.219927014651182108E+06  4.219922214511821046E+06  4.219919334000935778E+06  4.219917120635656640E+06  4.219915085526277311E+06
            4.219913093045297079E+06  4.219911104533445090E+06  4.219909093938401900E+06  4.219906983247587457E+06  4.219904450569866225E+06
            4.219901084487974644E+06  4.219897524408877827E+06  4.219893917610649019E+06  4.219890303579817526E+06  4.219886704874652438E+06
            4.219883183770194650E+06  4.219879964805465192E+06  4.219877914929931983E+06  4.219876890538281761E+06  4.219876154620118439E+06
            4.219875497282958589E+06  4.219874857775710523E+06  4.219874221862824634E+06  4.219873588849626482E+06  4.219872968590222299E+06
            4.219872403217710555E+06  4.219872040944750421E+06  4.219872394103146158E+06  4.219875527827440761E+06  4.219880207400251180E+06
            4.219885266268160194E+06  4.219890418563157320E+06  4.219895601262515411E+06  4.219900821637166664E+06  4.219906106405423954E+06
            4.219911487590305507E+06  4.219917116802356206E+06  4.219923700513895601E+06  4.219930822276452556E+06  4.219938073085929267E+06
            4.219945350649958476E+06  4.219952613066750579E+06  4.219959774912319146E+06  4.219966519186374731E+06  4.219971508947915398E+06
            4.219975592365383171E+06  4.219979452296747826E+06  4.219983261008406989E+06  4.219987060276910663E+06  4.219990861205829307E+06
            4.219994681393791921E+06  4.219998598000462167E+06  4.220002925100237131E+06  4.220009006386495195E+06  4.220016157063594088E+06
            4.220023547019616701E+06  4.220030989516683854E+06  4.220038439845733345E+06  4.220045878987343982E+06  4.220053255142834038E+06
            4.220060360816271976E+06  4.220066331165992655E+06  4.220072056683202274E+06  4.220077745079854503E+06  4.220083435298616998E+06
            4.220089127913017757E+06  4.220094819588933140E+06  4.220100503503823653E+06  4.220106145600489341E+06  4.220111741924346425E+06
            4.220117350542221218E+06  4.220122969772529788E+06  4.220128592580039054E+06  4.220134216205661185E+06  4.220139839944603853E+06
            4.220145463055222295E+06  4.220151082821876742E+06  4.220156685063540004E+06  4.220162240747683682E+06  4.220167761009991169E+06
            4.220173267170350067E+06  4.220178770515311509E+06  4.220184280052320100E+06  4.220189829006765038E+06  4.220195567829766311E+06
            4.220202172241528518E+06  4.220210144552865997E+06  4.220218409672790207E+06  4.220226741584480740E+06  4.220235098905535415E+06
            4.220243484855624847E+06  4.220251896506425925E+06  4.220260345372283831E+06  4.220268913707397878E+06  4.220277818144071847E+06
            4.220287862435825169E+06  4.220298172143103555E+06  4.220308540073745884E+06  4.220318918173887767E+06  4.220329296187366359E+06
            4.220339665579683147E+06  4.220349998809350654E+06  4.220360217306000181E+06  4.220370066274638288E+06  4.220379407372024842E+06
            4.220388642301768996E+06  4.220397855405213311E+06  4.220407061031245627E+06  4.220416240534033626E+06  4.220425290169237182E+06
            4.220433792650053278E+06  4.220439878899265081E+06  4.220445337590449490E+06  4.220450666740873829E+06  4.220455966117938980E+06
            4.220461215582110919E+06  4.220466220173785463E+06  4.220469986263895407E+06  4.220472432502413169E+06  4.220474612828967161E+06
            4.220476742234967649E+06  4.220478863680128939E+06  4.220480984507566318E+06  4.220483107938376255E+06  4.220485247365784831E+06
            4.220487469068888575E+06  4.220490051125079393E+06  4.220492617898402736E+06  4.220495110687170178E+06  4.220497570746554993E+06
            4.220500022597491741E+06  4.220502475816573016E+06  4.220504947761124931E+06  4.220507516124768183E+06  4.220510470604788512E+06
            4.220514803829034790E+06  4.220519416496261954E+06  4.220524085922678933E+06  4.220528774840441532E+06  4.220533484308914281E+06
            4.220538202750665136E+06  4.220542919305529445E+06  4.220547606651283801E+06  4.220552126707477495E+06  4.220555729601609521E+06
            4.220558750324619003E+06  4.220561663119527511E+06  4.220564552458478138E+06  4.220567417077977210E+06  4.220570224590586498E+06
            4.220572937702847645E+06  4.220575253768692724E+06  4.220576725269990042E+06  4.220578025644769892E+06  4.220579247368013486E+06
            4.220580443836688064E+06
 ETA=   40  4.220677457361940295E+06  4.220658984271758236E+06  4.220640125771943480E+06  4.220619491589425132E+06  4.220598622611914761E+06
            4.220577696068531834E+06  4.220556754493020475E+06  4.220535807369469665E+06  4.220514845953688025E+06  4.220493889994024299E+06
            4.220472935391517356E+06  4.220451984988448210E+06  4.220431036215661094E+06  4.220410086969740689E+06  4.220389133796259761E+06
            4.220368164095670916E+06  4.220347114430856891E+06  4.220325994659957476E+06  4.220304924011110328E+06  4.220284083712533116E+06
            4.220265578640776686E+06  4.220248214117174968E+06  4.220231147195250727E+06  4.220214150840726681E+06  4.220197171428195201E+06
            4.220180196334558539E+06  4.220163225939199328E+06  4.220146268519007601E+06  4.220129341154261492E+06  4.220112443546866067E+06
            4.220095569822293706E+06  4.220078706009492278E+06  4.220061845205290243E+06  4.220044986422422342E+06  4.220028136770107783E+06
            4.220011333613968454E+06  4.219994730373269878E+06  4.219978990794084966E+06  4.219969815136189573E+06  4.219963637038419954E+06
            4.219957997146042995E+06  4.219952482126817107E+06  4.219946998111301102E+06  4.219941534181358293E+06  4.219936118784561753E+06
            4.219930825107015669E+06  4.219925887529590167E+06  4.219923384264689870E+06  4.219921433006770909E+06  4.219919584466694854E+06
            4.219917758730355650E+06  4.219915935024694540E+06  4.219914099090998992E+06  4.219912200327493250E+06  4.219909853211699054E+06
            4.219906426494352520E+06  4.219902869858565740E+06  4.219899287087016739E+06  4.219895700375304557E+06  4.219892121729557402E+06
            4.219888585138656199E+06  4.219885237689810805E+06  4.219883247414874844E+06  4.219882380856052041E+06  4.219881689316513017E+06
            4.219881039766268805E+06  4.219880399509473704E+06  4.219879761105756275E+06  4.219879124184905551E+06  4.219878493794690818E+06
            4.219877891967901960E+06  4.219877399615893140E+06  4.219877362385865301E+06  4.219880763110599481E+06  4.219885739472594112E+06
            4.219890945427251980E+06  4.219896201703390107E+06  4.219901473690843210E+06  4.219906764679721557E+06  4.219912088184039108E+06
            4.219917462443424389E+06  4.219922992882235907E+06  4.219929696612632833E+06  4.219936952723817900E+06  4.219944287070106715E+06
            4.219951635924193077E+06  4.219958976775813848E+06  4.219966262856776826E+06  4.219973282962769270E+06  4.219978148753199726E+06
            4.219982098713705316E+06  4.219985914114215411E+06  4.219989701914012432E+06  4.219993484747420065E+06  4.219997268447043374E+06
            4.220001062328697182E+06  4.220004908759448677E+06  4.220009016660133377E+06  4.220015272961912677E+06  4.220022657641673461E+06
            4.220030188795716502E+06  4.220037748444644734E+06  4.220045312246467918E+06  4.220052870117790066E+06  4.220060393375567161E+06
            4.220067735205821693E+06  4.220073634312606417E+06  4.220079373994501308E+06  4.220085092365425080E+06  4.220090811320378445E+06
            4.220096531423738226E+06  4.220102250936853699E+06  4.220107965041524731E+06  4.220113622599419206E+06  4.220119204031692818E+06
            4.220124789343749173E+06  4.220130379840017296E+06  4.220135972112574615E+06  4.220141564795034938E+06  4.220147157542641275E+06
            4.220152750082826242E+06  4.220158343483756296E+06  4.220163933670345694E+06  4.220169500748432241E+06  4.220175050072892569E+06
            4.220180592383418232E+06  4.220186133305962197E+06  4.220191677505496889E+06  4.220197242963120341E+06  4.220202923881432973E+06
            4.220209529686998576E+06  4.220217760287149809E+06  4.220226174127506092E+06  4.220234623987118714E+06  4.220243086880384944E+06
            4.220251564115014859E+06  4.220260054230558686E+06  4.220268563260241412E+06  4.220277134558593854E+06  4.220285903147986159E+06
            4.220296014780679718E+06  4.220306288849660195E+06  4.220316594059071504E+06  4.220326904585150070E+06  4.220337215085728094E+06
            4.220347521216779016E+06  4.220357808769252151E+06  4.220368031515344977E+06  4.220377875922543928E+06  4.220387128945508040E+06
            4.220396316251453012E+06  4.220405491783970967E+06  4.220414663436684757E+06  4.220423821577386931E+06  4.220432910846692510E+06
            4.220441665096717887E+06  4.220447488851338625E+06  4.220452834635833278E+06  4.220458107853951864E+06  4.220463365314708091E+06
            4.220468595913439989E+06  4.220473676539991051E+06  4.220477369508897886E+06  4.220479556026705541E+06  4.220481579028653912E+06
            4.220483574561397545E+06  4.220485565903681330E+06  4.220487556924641132E+06  4.220489549330528826E+06  4.220491550708821043E+06
            4.220493614050047472E+06  4.220496143276690505E+06  4.220498674275847152E+06  4.220501168635969982E+06  4.220503646874295548E+06
            4.220506121019799262E+06  4.220508595878603868E+06  4.220511080389450304E+06  4.220513616502443328E+06  4.220516417589383200E+06
            4.220520836778724566E+06  4.220525426236696541E+06  4.220530045931192115E+06  4.220534675560290925E+06  4.220539315481503494E+06
            4.220543959889310412E+06  4.220548603244337253E+06  4.220553230840947479E+06  4.220557755481834523E+06  4.220561214806083590E+06
            4.220564058361595497E+06  4.220566837165823206E+06  4.220569603562371805E+06  4.220572357495152391E+06  4.220575082452515140E+06
            4.220577753867184743E+06  4.220580034778654575E+06  4.220581325800104998E+06  4.220582513823284768E+06  4.220583661636624485E+06
            4.220584800230120309E+06
 ETA=   41  4.220678276119099930E+06  4.220660075793991797E+06  4.220641559874402359E+06  4.220620655930541456E+06  4.220599751986682415E+06
            4.220578848042821512E+06  4.220557944098962471E+06  4.220537038900387473E+06  4.220516111694616266E+06  4.220495184488845989E+06
            4.220474257283075713E+06  4.220453330077305436E+06  4.220432402871536091E+06  4.220411475665764883E+06  4.220390548459994607E+06
            4.220369621254224330E+06  4.220348570375968702E+06  4.220327438389561139E+06  4.220306306403152645E+06  4.220285174416745082E+06
            4.220266614115084521E+06  4.220249738627470098E+06  4.220232863139856607E+06  4.220215987652242184E+06  4.220199112164627761E+06
            4.220182236677013338E+06  4.220165361189398915E+06  4.220148485701785423E+06  4.220131610214171000E+06  4.220114734726557508E+06
            4.220097859238943085E+06  4.220080983751328662E+06  4.220064108263715170E+06  4.220047232776100747E+06  4.220030357288486324E+06
            4.220013481800871901E+06  4.219996606313257478E+06  4.219979730825643986E+06  4.219971273008801043E+06  4.219966035309621133E+06
            4.219960797610441223E+06  4.219955559911260381E+06  4.219950322212080471E+06  4.219945084512899630E+06  4.219939846813719720E+06
            4.219934609114538878E+06  4.219929371415358968E+06  4.219927392081731930E+06  4.219925733991242014E+06  4.219924075900752097E+06
            4.219922417810261250E+06  4.219920759719772264E+06  4.219919101629281417E+06  4.219917443538791500E+06  4.219915330153052695E+06
            4.219911770541854203E+06  4.219908210930654779E+06  4.219904651319455355E+06  4.219901091708255932E+06  4.219897532097057439E+06
            4.219893972485858016E+06  4.219890412874658592E+06  4.219888500103633851E+06  4.219887859274626710E+06  4.219887218445619568E+06
            4.219886577616611496E+06  4.219885936787604354E+06  4.219885295958597213E+06  4.219884655129590072E+06  4.219884014300582930E+06
            4.219883373471575789E+06  4.219882732642568648E+06  4.219882091813560575E+06  4.219885897195357829E+06  4.219891258907202631E+06
            4.219896620619048364E+06  4.219901982330893166E+06  4.219907344042738900E+06  4.219912705754583701E+06  4.219918067466429435E+06
            4.219923429178274237E+06  4.219928790890119039E+06  4.219935658744354732E+06  4.219943079743848182E+06  4.219950500743341632E+06
            4.219957921742836013E+06  4.219965342742329463E+06  4.219972763741822913E+06  4.219980184741316363E+06  4.219984845090795308E+06
            4.219988611482796259E+06  4.219992377874798141E+06  4.219996144266800024E+06  4.219999910658800974E+06  4.220003677050802857E+06
            4.220007443442804739E+06  4.220011209834805690E+06  4.220014976226806641E+06  4.220021477435713634E+06  4.220029155276793055E+06
            4.220036833117872477E+06  4.220044510958950967E+06  4.220052188800030388E+06  4.220059866641109809E+06  4.220067544482188299E+06
            4.220075201992316172E+06  4.220080949794671498E+06  4.220086697597026825E+06  4.220092445399381220E+06  4.220098193201735616E+06
            4.220103941004091874E+06  4.220109688806446269E+06  4.220115436608801596E+06  4.220121111303927377E+06  4.220126673109339550E+06
            4.220132234914749861E+06  4.220137796720162034E+06  4.220143358525572345E+06  4.220148920330984518E+06  4.220154482136394829E+06
            4.220160043941806071E+06  4.220165610792082734E+06  4.220171189431810752E+06  4.220176768071536906E+06  4.220182346711263992E+06
            4.220187925350991078E+06  4.220193503990718164E+06  4.220199082630446181E+06  4.220204661270172335E+06  4.220210239909899421E+06
            4.220216809909583069E+06  4.220225378751009703E+06  4.220233947592436336E+06  4.220242516433862969E+06  4.220251085275289603E+06
            4.220259654116715305E+06  4.220268222958141938E+06  4.220276791799568571E+06  4.220285360640995204E+06  4.220293930836630054E+06
            4.220304173882425763E+06  4.220314416928221472E+06  4.220324659974017181E+06  4.220334903019812889E+06  4.220345146065608598E+06
            4.220355389111404307E+06  4.220365632157200016E+06  4.220375875202994794E+06  4.220385727162206545E+06  4.220394864994370379E+06
            4.220404002826534212E+06  4.220413140658698045E+06  4.220422278490861878E+06  4.220431416323026642E+06  4.220440554155189544E+06
            4.220449691987354308E+06  4.220455130042945966E+06  4.220460345861483365E+06  4.220465561680020764E+06  4.220470777498558164E+06
            4.220475993317094631E+06  4.220481209135632031E+06  4.220484835432480089E+06  4.220486696418123320E+06  4.220488557403765619E+06
            4.220490418389408849E+06  4.220492279375052080E+06  4.220494140360694379E+06  4.220496001346337609E+06  4.220497862331980839E+06
            4.220499747388913296E+06  4.220502243901077658E+06  4.220504740413242951E+06  4.220507236925407313E+06  4.220509733437572606E+06
            4.220512229949736968E+06  4.220514726461902261E+06  4.220517222974067554E+06  4.220519719486231916E+06  4.220522305691011250E+06
            4.220526876010935754E+06  4.220531446330861188E+06  4.220536016650785692E+06  4.220540586970710196E+06  4.220545157290635630E+06
            4.220549727610561065E+06  4.220554297930485569E+06  4.220558868250410073E+06  4.220563438570335507E+06  4.220566734674993902E+06
            4.220569377811706625E+06  4.220572020948418416E+06  4.220574664085131139E+06  4.220577307221842930E+06  4.220579950358555652E+06
            4.220582593495267443E+06  4.220584864199311472E+06  4.220585937305372208E+06  4.220587010411432013E+06  4.220588083517491817E+06
            4.220589156623551622E+06
