# Generated on 13:11:44, 08-10-2012
# Deltares, D-Flow FM Version 1.1.52.23792:24192M, Oct 08 2012, 10:56:31

[model]
Program                      = D-Flow FM
Version                      = 1.1.52.23792:24192M
AutoStart                    = 0                   # Autostart simulation after loading MDU or not (0=no, 1=autostart, 2=autostartstop).

[geometry]
NetFile                      = r07e_bay_net.nc     # *_net.nc
BathymetryFile               =                     # *.xyb
WaterLevIniFile              =                     # Initial water levels sample file *.xyz
LandBoundaryFile             = deltabay.ldb        # Only for plotting
ThinDamFile                  =                     # *_thd.pli, Polyline(s) for tracing thin dams.
ThindykeFile                 =                     # *._tdk.pli, Polyline(s) x,y,z, z = thin dyke top levels
ProflocFile                  =                     # *_proflocation.xyz)    x,y,z, z = profile refnumber
ProfdefFile                  =                     # *_profdefinition.def) definition for all profile nrs
ManholeFile                  =                     # *...
WaterLevIni                  = 1.5                 # Initial water level
BotLevUni                    = -5.                 # Uniform bottom level, (only if Botlevtype>=3, used at missing z values in netfile
BotLevType                   = 3                   # 1 : Bottom levels at waterlevel cells (=flow nodes), like tiles xz, yz, bl , bob = max(bl left, bl right)
                                                   # 2 : Bottom levels at velocity points  (=flow links),            xu, yu, blu, bob = blu,    bl = lowest connected link
                                                   # 3 : Bottom levels at velocity points  (=flow links), using mean network levels xk, yk, zk  bl = lowest connected link
                                                   # 4 : Bottom levels at velocity points  (=flow links), using min  network levels xk, yk, zk  bl = lowest connected link
                                                   # 5 : Bottom levels at velocity points  (=flow links), using max  network levels xk, yk, zk  bl = lowest connected link
PartitionFile                =                     # *_part.pol, polyline(s) x,y
AngLat                       = 0.                  # Angle of latitude (deg), 0=no Coriolis
Conveyance2D                 = 3                   # -1:R=HU,0:R=H, 1:R=A/P, 2:K=analytic-1D conv, 3:K=analytic-2D conv

[numerics]
CFLMax                       = 2.                  # Max. Courant nr.
CFLWaveFrac                  = 0.1                 # Wave velocity fraction, total courant vel = u + cflw*wavevelocity
AdvecType                    = 5                   # Adv type, 0=no, 1= Wenneker, qu-udzt, 2=1, q(uio-u), 3=Perot q(uio-u), 4=Perot q(ui-u), 5=Perot q(ui-u) without itself
Limtypmom                    = 4                   # Limiter type for cell center advection velocity, 0=no, 1=minmod,2=vanLeer,3=Kooren,4=Monotone Central
Limtypsa                     = 4                   # Limiter type for salinity transport,           0=no, 1=minmod,2=vanLeer,3=Kooren,4=Monotone Central
Icgsolver                    = 4                   # Solver type , 1 = sobekGS_OMP, 2 = sobekGS_OMPthreadsafe, 3 = sobekGS, 4 = sobekGS + Saadilud
Hdam                         = 0.                  # Threshold for minimum bottomlevel step at which to apply energy conservation factor i.c. flow contraction
Teta0                        = 0.550000011920929   # Teta of time integration, 0.5 < Teta < 1d0

[physics]
UnifFrictCoef                = 3.3d-2              # Uniform friction coefficient, 0=no friction
UnifFrictType                = 1                   # 0=Chezy, 1=Manning, 2=White Colebrook, 3=z0 etc
Vicouv                       = 0.                  # Uniform horizontal eddy viscosity
Smagorinsky                  = 0.1                 # Add Smagorinsky horizontal turbulence : vicu = vicu + ( (Smagorinsky*dx)**2)*S, e.g. 0.1
Elder                        = 1.                  # Add Elder contribution                : vicu = vicu + Elder*kappa*ustar*H/6),   e.g. 1.0
irov                         = 0                   # 0=free slip, 1 = partial slip using wall_ks
wall_ks                      = 0.                  # Nikuradse roughness for side walls, wall_z0=wall_ks/30
Vicoww                       = 0.                  # Uniform vertical eddy viscosity
TidalForcing                 = 1                   # Tidal forcing (0=no, 1=yes) (only for jsferic == 1)
Salinity                     = 0                   # Include salinity, (0=no, 1=yes)

[sediment]
Sedimentmodelnr              = 1                   # Sediment model nr, (0=no, 1=Krone, 2=SvR2007)
Nr_of_sedfractions           = 1                   # Nr of sediment fractions, (specify the next parameters for each fraction)
MxgrKrone                    = 1                   # Highest fraction index treated by Krone
D50                          = 2.d-4               # Mean Sandgrain diameter (m), e.g. 0.0001
Rhosed                       = 2650.               # Mean Sandgrain rho (kg/m3) , e.g. 2650
Ws                           = 1.d-5               # Fall velocity (m/s), e.g. 0.0005 m/s
Erosionpar                   = 1.d-4               # Krone Partheniades erosion parameter, e.g. 0.0001  (kg/(m2s)
Taucre                       = 0.1                 # Critical shear stress for erosion    (N/m2), e.g. 0.3
InitialSedimentConcentration = 0.                  # Initial sediment concentration (kg /m3)
Uniformerodablethickness     = 0.                  # Uniform erodable layer thickness (m)
Numintverticaleinstein       = 10                  # Number of vertical intervals in Einstein integrals ( )
Jaceneqtr                    = 2                   # 1=equilibriumtransport at cell centre, 2= at netnode (default) ( )
Morfac                       = 0.                  # Morphological acceleration factor (), bottom updates active for morfac > 0, 1d0=realtime, etc
TMorfspinup                  = 3600.               # Spin up time for morphological adaptations (s)

[waves]
Wavemodelnr                  = 1                   # Wave model nr, 0=no, 1=fetch/depth limited hurdlestive, 2=youngverhagen
WaveNikuradse                = 1.d-2               # Wave friction Nikuradse ks coefficient, used in Krone Swart, e.g. 0.01 m

[wind]
ICdtyp                       = 2                   # ( ), Cd = const, 2=S&B 2 breakpoints, 3= S&B 3 breakpoints
Cdbreakpoints                = 6.3d-4 7.23d-3      # ( ),   e.g. 0.00063  0.00723
Windspeedbreakpoints         = 0. 100.             # (m/s), e.g. 0.0      100.0

[time]
RefDate                      = 20031001            # Reference date (yyyymmdd)
Tunit                        =                     # Time units in MDU (H, M or S)
DtUser                       = 1.                # User timestep in seconds (interval for external forcing update)
DtMax                        = 1.                # Max timestep in seconds
DtInit                       = 1.                  # Initial timestep in seconds
AutoTimestep                 = 1                   # Use CFL timestep limit or not (1/0)
TStart                       = 0.                  # Start time w.r.t. RefDate (in TUnit)
TStop                        = 31536000.           # Stop  time w.r.t. RefDate (in TUnit)

[external forcing]
ExtForceFile                 = r02b_.ext            # *.ext

[output]
ObsFile                      = m3_obs.xyn          # *.xyn Coords+name of observation stations.
CrsFile                      = all3_crs.pli        # *_crs.pli Polyline(s) definining cross section(s).
HisFile                      =                     # *_his.nc History file in NetCDF format.
HisInterval                  = 600.                # Interval (s) between history outputs
XLSInterval                  = 0.                  # Interval (s) between XLS history
FlowGeomFile                 =                     # *_flowgeom.nc Flow geometry file in NetCDF format.
MapFile                      =                     # *_map.nc Map file in NetCDF format.
MapInterval                  = 7200.               # Interval (s) between map file outputs
RstInterval                  = 7500000.            # Interval (s) between map file outputs
WaqFileBase                  = r01sbay             # Basename (without extension) for all Delwaq files to be written.
WaqInterval                  = 3600.               # Interval (in s) between Delwaq file outputs
StatsInterval                = 0.                  # Interval (in s) between simulation statistics output.
SnapshotDir                  = snapshots           # Directory where snapshots/screendumps are saved.
