

--------------------------------------------------------------------
Delft3D-WAQ/SED/ECO (version 3.32.08)

Session started: 25 June 2012, 10:23

Current directory: D:\PhD\model\DFlowWaq\run1_cc_yr04

