07-03 17:49 root         INFO     Converting from Sobek3 to D-Flow FM: dflow1d.md1d
07-03 17:49 sobek3Reader INFO     Reading Sobek files
07-03 17:49 sobek3Reader INFO     Number of Nodes     :10
07-03 17:49 sobek3Reader INFO     Number of Branches  :5
07-03 17:49 sobek3Reader INFO     Number of Boundaries:0
07-03 17:49 converter    INFO     Converting
07-03 17:49 FMWriter     INFO     Writing FM files
07-03 17:49 UgridWriter  INFO     Writing Ugrid file
07-03 17:49 root         INFO     Finished
