Ident  = #Delft3D-FLOW 3.56.29165#
Commnt =                  
Runtxt = #2 discharges to test combi#
         #parallel and nearfield#
Filcco = #2dis.grd#
Anglat =  0.0000000e+000
Grdang =  0.0000000e+000
Filgrd = #2dis.enc#
MNKmax = 22 12 10
Thick  =  1.0000000e+001
          1.0000000e+001
          1.0000000e+001
          1.0000000e+001
          1.0000000e+001
          1.0000000e+001
          1.0000000e+001
          1.0000000e+001
          1.0000000e+001
          1.0000000e+001
Commnt =                  
Depuni =  1.0000000e+001
Commnt =                  
Commnt =                 no. dry points: 0
Commnt =                 no. thin dams: 0
Commnt =                  
Itdate = #2016-03-10#
Tunit  = #M#
Tstart =  0.0000000e+000
Tstop  =  50.0
Dt     = 0.5
Tzone  = 0
Commnt =                  
Sub1   = # T  #
Sub2   = # C #
Namc1  = #tracer              #
Commnt =                  
Wnsvwp = #N#
Wndint = #Y#
Commnt =                  
Zeta0  =  0.0000000e+000
T0     =  1.5000000e+001
          1.5000000e+001
          1.5000000e+001
          1.5000000e+001
          1.5000000e+001
          1.5000000e+001
          1.5000000e+001
          1.5000000e+001
          1.5000000e+001
          1.5000000e+001
C01    =  1.0000000e+000
          1.0000000e+000
          1.0000000e+000
          1.0000000e+000
          1.0000000e+000
          1.0000000e+000
          1.0000000e+000
          1.0000000e+000
          1.0000000e+000
          1.0000000e+000
Commnt =                  
Commnt =                 no. open boundaries: 2
Filbnd = #2dis.bnd#
FilbcT = #2dis.bct#
FilbcQ = #2dis.bcq#
FilbcC = #2dis.bcc#
Rettis =  0.0000000e+000
          0.0000000e+000
Rettib =  0.0000000e+000
          0.0000000e+000
Commnt =                  
Ag     =  9.8100000e+000
Rhow   =  1.0000000e+003
Tempw  =  1.5000000e+001
Salw   =  3.1000000e+001
Wstres =  6.3000000e-004  0.0000000e+000  7.2300000e-003  1.0000000e+002  7.2300000e-003  1.0000000e+002
Rhoa   =  1.0000000e+000
Betac  =  5.0000000e-001
Equili = #N#
Tkemod = #K-epsilon   #
Ktemp  = 0
Fclou  =  0.0000000e+000
Sarea  =  0.0000000e+000
Secchi =  2.0000000e+000
Stantn =  1.3000000e-003
Dalton =  1.3000000e-003
Temint = #Y#
Commnt =                  
Roumet = #C#
Ccofu  =  6.5000000e+001
Ccofv  =  6.5000000e+001
Xlo    =  0.0000000e+000
Vicouv =  1.0000000e+000
Dicouv =  1.0000000e+001
Htur2d = #N#
Vicoww =  0.0000000e+000
Dicoww =  0.0000000e+000
Irov   = 0
Commnt =                  
Iter   =      2
Dryflp = #YES#
Dpsopt = #MAX#
Dpuopt = #MEAN#
Dryflc =  1.0000000e-001
Dco    = -9.9900000e+002
Tlfsmo =  0.0000000e+000
ThetQH =  0.0000000e+000
Forfuv = #Y#
Forfww = #Y#
Sigcor = #N#
Trasol = #Cyclic-method#
Momsol = #Cyclic#
Commnt =                  
Commnt =                 no. discharges: 0
Commnt =                 no. observation points: 5
Filsta = #2dis.obs#
Commnt =                 no. drogues: 0
Commnt =                  
Commnt =                  
Commnt =                 no. cross sections: 0
Commnt =                  
SMhydr = #YYYYY#     
SMderv = #YYYYYY#    
SMproc = #YYYYYYYYYY#
PMhydr = #YYYYYY#    
PMderv = #YYY#       
PMproc = #YYYYYYYYYY#
SHhydr = #YYYY#      
SHderv = #YYYYY#     
SHproc = #YYYYYYYYYY#
SHflux = #YYYY#      
PHhydr = #YYYYYY#    
PHderv = #YYY#       
PHproc = #YYYYYYYYYY#
PHflux = #YYYY#      
Flmap  =  0.0000000e+000 0.5  3.6000000e+002
Flhis  =  0.0000000e+000 10.0  3.6000000e+002
Flpp   =  0.0000000e+000 0.0  0.0000000e+000
Flrst  = 0.0
Commnt =                  
Online = #N#
Flnfl  = 10.0     14400.000    14400.0
Nflmod = #generic#
Filnfl = #COSUMOsettings.xml#
Nflwdr = 0.0
SkipUniqueId = true
Commnt =                  
