Deltares, D-Flow FM Version
Source: https://svn.oss.deltares.nl/repos/delft3d/trunk/
Compiled with support for:
IntGUI   : no
OpenGL   : no
OpenMP   : no
MPI      : yes
PETSc    : yes
METIS    : yes
PROJ     : yes
Shapelib : yes
