Deltares, D-Flow FM Version
Source: main
Compiled with Intel ifort, version
Compiled with support for:
IntGUI   : no
OpenGL   : no
OpenMP   : yes
MPI      : yes
PETSc    : yes
METIS    : yes
PROJ     : yes
Shapelib : yes
GDAL     : yes
