========================================================================
Delft3D-FLOW
========================================================================

Website:
https://oss.deltares.nl

DRAFT user manual, automatically updated every night:
https://content.oss.deltares.nl/delft3d4/manuals/Delft3D-FLOW_User_Manual.pdf